version 2
run Wireless3h_1m-0-20220312-20:47:52-45484
attr configname Wireless3h_1m
attr datetime 20220312-20:47:52
attr experiment Wireless3h_1m
attr inifile omnetpp.ini
attr iterationvars ""
attr iterationvarsf ""
attr measurement ""
attr network Wireless3h_1m
attr processid 45484
attr repetition 0
attr replication #0
attr resultdir results
attr runnumber 0
attr seedset 1
param *.host*.ipv4.arp.typename "\"GlobalArp\""
param *.host1.numApps 1
param *.host1.app[0].typename "\"RToFApp\""
param *.host1.app[0].destAddresses "\"Broadcast\""
param *.host1.app[0].localPort 6000
param *.host1.app[0].destPort 5000
param *.host1.app[0].need_calibration 0
param *.host1.app[0].packetName "\"Send msg\""
param *.host1.app[0].isReceiver false
param *.host1.app[0].arqName "\"Wireless3h_1m.csv\""
param *.host1.app[0].num_receptores 3
param *.host*.numApps 1
param *.host*.app[0].typename "\"RToFApp\""
param *.host*.app[0].localPort 5000
param *.host*.app[0].destPort 6000
param *.host*.app[0].isReceiver true
param *.host*.wlan[0].typename "\"WirelessInterface\""
param *.radioMedium.typename "\"ApskScalarRadioMedium\""
param *.radioMedium.backgroundNoise.power -90dBm
param *.radioMedium.mediumLimitCache.centerFrequency 2GHz
param *.host*.wlan[0].radio.typename "\"ApskScalarRadio\""
param *.host*.wlan[0].radio.centerFrequency 2GHz
param *.host*.wlan[0].radio.bandwidth 2MHz
param *.host*.wlan[0].radio.transmitter.power 1.4mW
param *.host*.wlan[0].radio.transmitter.preambleDuration 10us
param *.host*.wlan[0].radio.transmitter.headerLength 8B
param *.host*.wlan[0].radio.receiver.sensitivity -85dBm
param *.host*.wlan[0].radio.receiver.energyDetection -85dBm
param *.host*.wlan[0].radio.receiver.snirThreshold 4dB
param *.host*.wlan[0].mac.typename "\"CsmaCaMacRToF\""
param *.host*.wlan[0].mac.ackTimeout 300us
param *.host*.wlan[0].mac.useAck true
param *.host*.wlan[0].mac.headerLength 23B
param *.host*.**.bitrate 1Mbps
param **.ip.limitedBroadcast true

vector 0 Wireless3h_1m.host1.wlan[0].radio radioMode:vector ETV
attr interpolationmode sample-hold
attr source radioModeChanged
attr title "Radio mode, vector"
vector 1 Wireless3h_1m.host2.wlan[0].radio radioMode:vector ETV
attr interpolationmode sample-hold
attr source radioModeChanged
attr title "Radio mode, vector"
vector 2 Wireless3h_1m.host3.wlan[0].radio radioMode:vector ETV
attr interpolationmode sample-hold
attr source radioModeChanged
attr title "Radio mode, vector"
vector 3 Wireless3h_1m.host4.wlan[0].radio radioMode:vector ETV
attr interpolationmode sample-hold
attr source radioModeChanged
attr title "Radio mode, vector"
vector 4 Wireless3h_1m.host1.wlan[0].radio receptionState:vector ETV
attr interpolationmode sample-hold
attr source receptionStateChanged
attr title "Radio reception state, vector"
vector 5 Wireless3h_1m.host2.wlan[0].radio receptionState:vector ETV
attr interpolationmode sample-hold
attr source receptionStateChanged
attr title "Radio reception state, vector"
vector 6 Wireless3h_1m.host3.wlan[0].radio receptionState:vector ETV
attr interpolationmode sample-hold
attr source receptionStateChanged
attr title "Radio reception state, vector"
vector 7 Wireless3h_1m.host4.wlan[0].radio receptionState:vector ETV
attr interpolationmode sample-hold
attr source receptionStateChanged
attr title "Radio reception state, vector"
vector 8 Wireless3h_1m.host1.udp packetSent:vector(packetBytes) ETV
attr interpolationmode none
attr source packetSent
attr title "packets sent, vector(packetBytes)"
vector 9 Wireless3h_1m.host1.lo[0].lo rcvdPkFromHl:vector(packetBytes) ETV
attr interpolationmode none
attr source packetReceivedFromUpper
attr title "packets received from higher layer, vector(packetBytes)"
vector 10 Wireless3h_1m.host1.lo[0].lo passedUpPk:vector(packetBytes) ETV
attr interpolationmode none
attr source packetSentToUpper
attr title "packets passed to higher layer, vector(packetBytes)"
vector 11 Wireless3h_1m.host1.wlan[0].mac.queue packetPushed:vector(packetBytes) ETV
attr interpolationmode none
attr title "packet pushed, vector(packetBytes)"
vector 12 Wireless3h_1m.host1.wlan[0].mac.queue queueLength:vector ETV
attr interpolationmode sample-hold
attr source "count(packetPushed) - count(packetPopped) - count(packetRemoved) - count(packetDropped)"
attr title "queue length, vector"
vector 13 Wireless3h_1m.host1.wlan[0].mac.queue packetPopped:vector(packetBytes) ETV
attr interpolationmode none
attr title "packet popped, vector(packetBytes)"
vector 14 Wireless3h_1m.host1.wlan[0].mac.queue queueingTime:vector ETV
attr interpolationmode none
attr source queueingTime(packetPopped)
attr title "queueing times, vector"
attr unit s
vector 15 Wireless3h_1m.host1.udp packetReceived:vector(packetBytes) ETV
attr interpolationmode none
attr source packetReceived
attr title "packets received, vector(packetBytes)"
vector 16 Wireless3h_1m.host1.udp droppedPkWrongPort:vector(count) ETV
attr interpolationmode none
attr source packetDropReasonIsNoPortFound(packetDropped)
attr title "packets dropped (wrong port), vector(count)"
vector 17 Wireless3h_1m.host1.wlan[0].radio transmissionState:vector ETV
attr interpolationmode sample-hold
attr source transmissionStateChanged
attr title "Radio transmission state, vector"
vector 18 Wireless3h_1m.host2.udp packetReceived:vector(packetBytes) ETV
attr interpolationmode none
attr source packetReceived
attr title "packets received, vector(packetBytes)"
vector 19 Wireless3h_1m.host2.udp passedUpPk:vector(count) ETV
attr interpolationmode none
attr source packetSentToUpper
attr title "packets passed up, vector(count)"
vector 20 Wireless3h_1m.host3.udp packetReceived:vector(packetBytes) ETV
attr interpolationmode none
attr source packetReceived
attr title "packets received, vector(packetBytes)"
vector 21 Wireless3h_1m.host3.udp passedUpPk:vector(count) ETV
attr interpolationmode none
attr source packetSentToUpper
attr title "packets passed up, vector(count)"
vector 22 Wireless3h_1m.host4.udp packetReceived:vector(packetBytes) ETV
attr interpolationmode none
attr source packetReceived
attr title "packets received, vector(packetBytes)"
vector 23 Wireless3h_1m.host4.udp passedUpPk:vector(count) ETV
attr interpolationmode none
attr source packetSentToUpper
attr title "packets passed up, vector(count)"
vector 24 Wireless3h_1m.host2.udp packetSent:vector(packetBytes) ETV
attr interpolationmode none
attr source packetSent
attr title "packets sent, vector(packetBytes)"
vector 25 Wireless3h_1m.host3.udp packetSent:vector(packetBytes) ETV
attr interpolationmode none
attr source packetSent
attr title "packets sent, vector(packetBytes)"
vector 26 Wireless3h_1m.host4.udp packetSent:vector(packetBytes) ETV
attr interpolationmode none
attr source packetSent
attr title "packets sent, vector(packetBytes)"
vector 27 Wireless3h_1m.host2.wlan[0].mac.queue packetPushed:vector(packetBytes) ETV
attr interpolationmode none
attr title "packet pushed, vector(packetBytes)"
vector 28 Wireless3h_1m.host2.wlan[0].mac.queue queueLength:vector ETV
attr interpolationmode sample-hold
attr source "count(packetPushed) - count(packetPopped) - count(packetRemoved) - count(packetDropped)"
attr title "queue length, vector"
vector 29 Wireless3h_1m.host2.wlan[0].mac.queue packetPopped:vector(packetBytes) ETV
attr interpolationmode none
attr title "packet popped, vector(packetBytes)"
vector 30 Wireless3h_1m.host2.wlan[0].mac.queue queueingTime:vector ETV
attr interpolationmode none
attr source queueingTime(packetPopped)
attr title "queueing times, vector"
attr unit s
vector 31 Wireless3h_1m.host3.wlan[0].mac.queue packetPushed:vector(packetBytes) ETV
attr interpolationmode none
attr title "packet pushed, vector(packetBytes)"
vector 32 Wireless3h_1m.host3.wlan[0].mac.queue queueLength:vector ETV
attr interpolationmode sample-hold
attr source "count(packetPushed) - count(packetPopped) - count(packetRemoved) - count(packetDropped)"
attr title "queue length, vector"
vector 33 Wireless3h_1m.host3.wlan[0].mac.queue packetPopped:vector(packetBytes) ETV
attr interpolationmode none
attr title "packet popped, vector(packetBytes)"
vector 34 Wireless3h_1m.host3.wlan[0].mac.queue queueingTime:vector ETV
attr interpolationmode none
attr source queueingTime(packetPopped)
attr title "queueing times, vector"
attr unit s
vector 35 Wireless3h_1m.host4.wlan[0].mac.queue packetPushed:vector(packetBytes) ETV
attr interpolationmode none
attr title "packet pushed, vector(packetBytes)"
vector 36 Wireless3h_1m.host4.wlan[0].mac.queue queueLength:vector ETV
attr interpolationmode sample-hold
attr source "count(packetPushed) - count(packetPopped) - count(packetRemoved) - count(packetDropped)"
attr title "queue length, vector"
vector 37 Wireless3h_1m.host4.wlan[0].mac.queue packetPopped:vector(packetBytes) ETV
attr interpolationmode none
attr title "packet popped, vector(packetBytes)"
vector 38 Wireless3h_1m.host4.wlan[0].mac.queue queueingTime:vector ETV
attr interpolationmode none
attr source queueingTime(packetPopped)
attr title "queueing times, vector"
attr unit s
vector 39 Wireless3h_1m.host4.wlan[0].radio transmissionState:vector ETV
attr interpolationmode sample-hold
attr source transmissionStateChanged
attr title "Radio transmission state, vector"
vector 40 Wireless3h_1m.host1.udp passedUpPk:vector(count) ETV
attr interpolationmode none
attr source packetSentToUpper
attr title "packets passed up, vector(count)"
vector 41 Wireless3h_1m.host2.wlan[0].mac packetDropNotAddressedToUs:vector(packetBytes) ETV
attr interpolationmode none
attr source packetDropReasonIsNotAddressedToUs(packetDropped)
attr title "packet drop: not addressed to us, vector(packetBytes)"
vector 42 Wireless3h_1m.host3.wlan[0].mac packetDropNotAddressedToUs:vector(packetBytes) ETV
attr interpolationmode none
attr source packetDropReasonIsNotAddressedToUs(packetDropped)
attr title "packet drop: not addressed to us, vector(packetBytes)"
vector 43 Wireless3h_1m.host2.wlan[0].radio transmissionState:vector ETV
attr interpolationmode sample-hold
attr source transmissionStateChanged
attr title "Radio transmission state, vector"
vector 44 Wireless3h_1m.host4.wlan[0].mac packetDropNotAddressedToUs:vector(packetBytes) ETV
attr interpolationmode none
attr source packetDropReasonIsNotAddressedToUs(packetDropped)
attr title "packet drop: not addressed to us, vector(packetBytes)"
vector 45 Wireless3h_1m.host3.wlan[0].radio transmissionState:vector ETV
attr interpolationmode sample-hold
attr source transmissionStateChanged
attr title "Radio transmission state, vector"
vector 46 Wireless3h_1m.host1.wlan[0].mac packetDropIncorrectlyReceived:vector(packetBytes) ETV
attr interpolationmode none
attr source packetDropReasonIsIncorrectlyReceived(packetDropped)
attr title "packet drop: incorrectly received, vector(packetBytes)"
vector 47 Wireless3h_1m.host4.wlan[0].mac packetDropIncorrectlyReceived:vector(packetBytes) ETV
attr interpolationmode none
attr source packetDropReasonIsIncorrectlyReceived(packetDropped)
attr title "packet drop: incorrectly received, vector(packetBytes)"
vector 48 Wireless3h_1m.host3.wlan[0].mac packetDropIncorrectlyReceived:vector(packetBytes) ETV
attr interpolationmode none
attr source packetDropReasonIsIncorrectlyReceived(packetDropped)
attr title "packet drop: incorrectly received, vector(packetBytes)"
vector 49 Wireless3h_1m.host2.wlan[0].mac packetDropIncorrectlyReceived:vector(packetBytes) ETV
attr interpolationmode none
attr source packetDropReasonIsIncorrectlyReceived(packetDropped)
attr title "packet drop: incorrectly received, vector(packetBytes)"
0	0	0	0
0	0	0	0
0	0	0	2
0	16	0.00019	3
0	21	0.000736	2
0	64	0.001462006672	3
0	69	0.001680006672	2
0	93	0.002426013344	3
0	98	0.002644013344	2
0	127	0.003550020016	3
0	132	0.003768020016	2
0	140	0.004178020016	3
0	145	0.004724020016	2
0	188	0.005430026688	3
0	193	0.005648026688	2
0	217	0.00655403336	3
0	222	0.00677203336	2
0	251	0.007578040032	3
0	256	0.007796040032	2
0	264	0.008246040032	3
0	269	0.008792040032	2
0	312	0.009598046704	3
0	317	0.009816046704	2
0	341	0.010442053376	3
0	346	0.010660053376	2
0	377	0.011606060048	3
0	383	0.011824060048	2
0	392	0.012454060048	3
0	398	0.013000060048	2
0	442	0.01368606672	3
0	448	0.01390406672	2
0	472	0.014710073392	3
0	478	0.014928073392	2
0	508	0.015614080064	3
0	514	0.015832080064	2
0	522	0.016342080064	3
0	529	0.016888080064	2
0	573	0.017674086736	3
0	579	0.017892086736	2
0	603	0.018658093408	3
0	609	0.018876093408	2
0	639	0.01960210008	3
0	645	0.01982010008	2
0	653	0.01987010008	3
0	658	0.02041610008	2
0	703	0.021202106752	3
0	708	0.021420106752	2
0	734	0.022106113424	3
0	739	0.022324113424	2
0	769	0.023110120096	3
0	774	0.023328120096	2
0	782	0.023518120096	3
0	789	0.024064120096	2
0	834	0.025110126768	3
0	839	0.025328126768	2
0	865	0.02607413344	3
0	870	0.02629213344	2
0	900	0.026938140112	3
0	905	0.027156140112	2
0	913	0.027226140112	3
0	919	0.027772140112	2
0	963	0.028378146784	3
0	968	0.028596146784	2
0	994	0.029542153456	3
0	1000	0.029760153456	2
0	1031	0.030586160128	3
0	1036	0.030804160128	2
0	1045	0.031334160128	3
0	1051	0.031880160128	2
0	1096	0.0327461668	3
0	1101	0.0329641668	2
0	1127	0.033610173472	3
0	1132	0.033828173472	2
0	1162	0.034514180144	3
0	1167	0.034732180144	2
0	1176	0.035282180144	3
0	1182	0.035828180144	2
0	1227	0.036574186816	3
0	1232	0.036792186816	2
0	1258	0.037418193488	3
0	1263	0.037636193488	2
0	1295	0.03868220016	3
0	1300	0.03890020016	2
0	1308	0.03907020016	3
0	1314	0.03961620016	2
0	1358	0.040562206832	3
0	1364	0.040780206832	2
0	1389	0.041466213504	3
0	1394	0.041684213504	2
0	1424	0.042370220176	3
0	1429	0.042588220176	2
0	1437	0.042718220176	3
0	1444	0.043264220176	2
0	1489	0.044090226848	3
0	1494	0.044308226848	2
0	1520	0.04503423352	3
0	1525	0.04525223352	2
0	1555	0.045998240192	3
0	1560	0.046216240192	2
0	1569	0.046786240192	3
0	1575	0.047332240192	2
0	1620	0.048198246864	3
0	1625	0.048416246864	2
0	1651	0.049082253536	3
0	1656	0.049300253536	2
0	1686	0.049986260208	3
0	1691	0.050204260208	2
0	1699	0.050434260208	3
0	1706	0.050980260208	2
0	1750	0.05158626688	3
0	1756	0.05180426688	2
0	1782	0.052710273552	3
0	1787	0.052928273552	2
0	1817	0.053594280224	3
0	1822	0.053812280224	2
0	1832	0.054362280224	3
0	1837	0.054908280224	2
0	1882	0.055554286896	3
0	1887	0.055772286896	2
0	1913	0.056638293568	3
0	1918	0.056856293568	2
0	1948	0.05762230024	3
0	1953	0.05784030024	2
0	1962	0.05841030024	3
0	1968	0.05895630024	2
0	2013	0.059722306912	3
0	2018	0.059940306912	2
0	2044	0.060826313584	3
0	2050	0.061044313584	2
0	2080	0.061710320256	3
0	2086	0.061928320256	2
0	2094	0.062038320256	3
0	2099	0.062584320256	2
0	2144	0.063330326928	3
0	2149	0.063548326928	2
0	2175	0.0644743336	3
0	2180	0.0646923336	2
0	2210	0.065438340272	3
0	2216	0.065656340272	2
0	2225	0.065786340272	3
0	2230	0.066332340272	2
0	2275	0.067038346944	3
0	2280	0.067256346944	2
0	2306	0.068262353616	3
0	2311	0.068480353616	2
0	2341	0.069126360288	3
0	2346	0.069344360288	2
0	2354	0.069514360288	3
0	2361	0.070060360288	2
0	2404	0.07066636696	3
0	2410	0.07088436696	2
0	2435	0.071530373632	3
0	2441	0.071748373632	2
0	2471	0.072474380304	3
0	2477	0.072692380304	2
0	2485	0.073202380304	3
0	2492	0.073748380304	2
0	2560	0.075410391693	3
0	2566	0.075628391693	2
0	2592	0.076374398365	3
0	2597	0.076592398365	2
0	2628	0.077558405037	3
0	2633	0.077776405037	2
0	2642	0.078386405037	3
0	2648	0.078932405037	2
0	2693	0.079738411709	3
0	2698	0.079956411709	2
0	2723	0.080642418381	3
0	2729	0.080860418381	2
0	2761	0.081786425053	3
0	2766	0.082004425053	2
0	2775	0.082534425053	3
0	2781	0.083080425053	2
0	2824	0.083706431725	3
0	2830	0.083924431725	2
0	2881	0.086126438397	3
0	2886	0.086344438397	2
0	2918	0.087670445069	3
0	2924	0.087888445069	2
0	2932	0.087938445069	3
0	2937	0.088484445069	2
0	2981	0.089350451741	3
0	2986	0.089568451741	2
0	3012	0.090394458413	3
0	3017	0.090612458413	2
0	3048	0.091318465085	3
0	3053	0.091536465085	2
0	3062	0.091986465085	3
0	3068	0.092532465085	2
0	3112	0.093178471757	3
0	3117	0.093396471757	2
0	3143	0.094082478429	3
0	3148	0.094300478429	2
0	3178	0.095206485101	3
0	3183	0.095424485101	2
0	3191	0.096014485101	3
0	3198	0.096560485101	2
0	3241	0.097306491773	3
0	3246	0.097524491773	2
0	3272	0.098210498445	3
0	3277	0.098428498445	2
0	3307	0.099234505117	3
0	3313	0.099452505117	2
0	3322	0.099662505117	3
0	3327	0.100208505117	2
0	3397	0.10165051846	3
0	3402	0.10186851846	2
0	3427	0.102874525132	3
0	3432	0.103092525132	2
0	3463	0.103898531804	3
0	3469	0.104116531804	2
0	3478	0.104306531804	3
0	3483	0.104852531804	2
0	3528	0.105538538476	3
0	3533	0.105756538476	2
0	3557	0.106422545148	3
0	3563	0.106640545148	2
0	3593	0.10736655182	3
0	3599	0.10758455182	2
0	3607	0.10795455182	3
0	3614	0.10850055182	2
0	3657	0.109106558492	3
0	3663	0.109324558492	2
0	3689	0.110290565164	3
0	3694	0.110508565164	2
0	3724	0.111314571836	3
0	3729	0.111532571836	2
0	3738	0.111782571836	3
0	3744	0.112328571836	2
0	3789	0.113274578508	3
0	3794	0.113492578508	2
0	3820	0.11421858518	3
0	3825	0.11443658518	2
0	3855	0.115142591852	3
0	3860	0.115360591852	2
0	3870	0.115910591852	3
0	3876	0.116456591852	2
0	3920	0.117262598524	3
0	3926	0.117480598524	2
0	3951	0.118366605196	3
0	3957	0.118584605196	2
0	3987	0.119270611868	3
0	3993	0.119488611868	2
0	4001	0.119538611868	3
0	4006	0.120084611868	2
0	4051	0.12071061854	3
0	4056	0.12092861854	2
0	4082	0.121754625212	3
0	4087	0.121972625212	2
0	4117	0.122938631884	3
0	4122	0.123156631884	2
0	4131	0.123386631884	3
0	4137	0.123932631884	2
0	4182	0.124898638556	3
0	4187	0.125116638556	2
0	4213	0.125742645228	3
0	4218	0.125960645228	2
0	4248	0.1266666519	3
0	4253	0.1268846519	2
0	4261	0.1269746519	3
0	4268	0.1275206519	2
0	4311	0.128266658572	3
0	4317	0.128484658572	2
0	4342	0.129190665244	3
0	4348	0.129408665244	2
0	4379	0.130334671916	3
0	4384	0.130552671916	2
0	4393	0.130802671916	3
0	4399	0.131348671916	2
0	4443	0.131954678588	3
0	4449	0.132172678588	2
0	4474	0.13295868526	3
0	4480	0.13317668526	2
0	4510	0.134042691932	3
0	4515	0.134260691932	2
0	4523	0.134750691932	3
0	4530	0.135296691932	2
0	4574	0.135942698604	3
0	4580	0.136160698604	2
0	4605	0.136846705276	3
0	4611	0.137064705276	2
0	4641	0.137690711948	3
0	4646	0.137908711948	2
0	4655	0.138278711948	3
0	4661	0.138824711948	2
0	4706	0.13953071862	3
0	4711	0.13974871862	2
0	4737	0.140554725292	3
0	4742	0.140772725292	2
0	4772	0.141518731964	3
0	4777	0.141736731964	2
0	4786	0.141986731964	3
0	4792	0.142532731964	2
0	4837	0.143458738636	3
0	4842	0.143676738636	2
0	4868	0.144362745308	3
0	4873	0.144580745308	2
0	4902	0.14522675198	3
0	4908	0.14544475198	2
0	4916	0.14559475198	3
0	4922	0.14614075198	2
0	4967	0.147006758652	3
0	4973	0.147224758652	2
0	4999	0.147910765324	3
0	5004	0.148128765324	2
0	5033	0.148754771996	3
0	5039	0.148972771996	2
0	5047	0.149442771996	3
0	5054	0.149988771996	2
0	5098	0.150594778668	3
0	5104	0.150812778668	2
0	5129	0.15161878534	3
0	5135	0.15183678534	2
0	5165	0.152642792012	3
0	5170	0.152860792012	2
0	5179	0.153490792012	3
0	5185	0.154036792012	2
0	5230	0.155062798684	3
0	5236	0.155280798684	2
0	5261	0.155946805356	3
0	5267	0.156164805356	2
0	5296	0.156790812028	3
0	5302	0.157008812028	2
0	5310	0.157058812028	3
0	5316	0.157604812028	2
0	5361	0.1585908187	3
0	5367	0.1588088187	2
0	5418	0.160710825372	3
0	5424	0.160928825372	2
0	5455	0.162234832044	3
0	5460	0.162452832044	2
0	5470	0.162902832044	3
0	5475	0.163448832044	2
0	5519	0.164174838716	3
0	5524	0.164392838716	2
0	5549	0.165098845388	3
0	5555	0.165316845388	2
0	5585	0.16610285206	3
0	5591	0.16632085206	2
0	5600	0.16685085206	3
0	5606	0.16739685206	2
0	5650	0.168302858732	3
0	5655	0.168520858732	2
0	5681	0.169306865404	3
0	5687	0.169524865404	2
0	5716	0.170190872076	3
0	5721	0.170408872076	2
0	5729	0.170638872076	3
0	5736	0.171184872076	2
0	5779	0.171830878748	3
0	5784	0.172048878748	2
0	5810	0.17275488542	3
0	5815	0.17297288542	2
0	5845	0.173858892092	3
0	5850	0.174076892092	2
0	5859	0.174206892092	3
0	5865	0.174752892092	2
0	5910	0.175458898764	3
0	5915	0.175676898764	2
0	5941	0.176602905436	3
0	5946	0.176820905436	2
0	5976	0.177486912108	3
0	5981	0.177704912108	2
0	5989	0.178014912108	3
0	5996	0.178560912108	2
0	6065	0.180302925451	3
0	6071	0.180520925451	2
0	6096	0.181386932123	3
0	6101	0.181604932123	2
0	6133	0.182890938795	3
0	6139	0.183108938795	2
0	6147	0.183438938795	3
0	6153	0.183984938795	2
0	6198	0.184850945467	3
0	6203	0.185068945467	2
0	6229	0.185734952139	3
0	6234	0.185952952139	2
0	6264	0.186698958811	3
0	6270	0.186916958811	2
0	6278	0.187166958811	3
0	6285	0.187712958811	2
0	6328	0.188378965483	3
0	6334	0.188596965483	2
0	6358	0.189402972155	3
0	6364	0.189620972155	2
0	6394	0.190366978827	3
0	6400	0.190584978827	2
0	6408	0.190914978827	3
0	6414	0.191460978827	2
0	6458	0.192066985499	3
0	6463	0.192284985499	2
0	6489	0.193170992171	3
0	6494	0.193388992171	2
0	6524	0.194294998843	3
0	6529	0.194512998843	2
0	6537	0.194782998843	3
0	6544	0.195328998843	2
0	6589	0.195995005515	3
0	6594	0.196213005515	2
0	6620	0.197179012187	3
0	6625	0.197397012187	2
0	6655	0.198163018859	3
0	6661	0.198381018859	2
0	6669	0.198471018859	3
0	6675	0.199017018859	2
0	6720	0.199943025531	3
0	6725	0.200161025531	2
0	6751	0.200827032203	3
0	6756	0.201045032203	2
0	6786	0.201671038875	3
0	6791	0.201889038875	2
0	6799	0.201939038875	3
0	6806	0.202485038875	2
0	6851	0.203551045547	3
0	6856	0.203769045547	2
0	6881	0.204475052219	3
0	6887	0.204693052219	2
0	6916	0.205319058891	3
0	6922	0.205537058891	2
0	6931	0.206207058891	3
0	6937	0.206753058891	2
0	6982	0.207559065563	3
0	6987	0.207777065563	2
0	7013	0.208743072235	3
0	7018	0.208961072235	2
0	7048	0.209607078907	3
0	7053	0.209825078907	2
0	7062	0.210135078907	3
0	7068	0.210681078907	2
0	7113	0.211287085579	3
0	7118	0.211505085579	2
0	7144	0.212171092251	3
0	7149	0.212389092251	2
0	7179	0.213095098923	3
0	7184	0.213313098923	2
0	7193	0.213623098923	3
0	7199	0.214169098923	2
0	7244	0.214955105595	3
0	7249	0.215173105595	2
0	7275	0.215899112267	3
0	7280	0.216117112267	2
0	7310	0.216783118939	3
0	7315	0.217001118939	2
0	7323	0.217291118939	3
0	7330	0.217837118939	2
0	7374	0.218783125611	3
0	7380	0.219001125611	2
0	7405	0.219647132283	3
0	7411	0.219865132283	2
0	7440	0.220571138955	3
0	7446	0.220789138955	2
0	7454	0.221239138955	3
0	7461	0.221785138955	2
0	7506	0.222631145627	3
0	7511	0.222849145627	2
0	7537	0.223515152299	3
0	7542	0.223733152299	2
0	7572	0.224639158971	3
0	7577	0.224857158971	2
0	7587	0.225187158971	3
0	7592	0.225733158971	2
0	7662	0.22747517036	3
0	7667	0.22769317036	2
0	7693	0.228819177032	3
0	7699	0.229037177032	2
0	7730	0.229983183704	3
0	7735	0.230201183704	2
0	7743	0.230391183704	3
0	7750	0.230937183704	2
0	7793	0.231603190376	3
0	7799	0.231821190376	2
0	7824	0.232667197048	3
0	7830	0.232885197048	2
0	7860	0.23361120372	3
0	7866	0.23382920372	2
0	7874	0.23443920372	3
0	7881	0.23498520372	2
0	7924	0.235631210392	3
0	7930	0.235849210392	2
0	7954	0.236495217064	3
0	7960	0.236713217064	2
0	7990	0.237619223736	3
0	7996	0.237837223736	2
0	8004	0.237887223736	3
0	8009	0.238433223736	2
0	8054	0.239099230408	3
0	8059	0.239317230408	2
0	8085	0.24024323708	3
0	8090	0.24046123708	2
0	8120	0.241167243752	3
0	8125	0.241385243752	2
0	8133	0.241535243752	3
0	8140	0.242081243752	2
0	8184	0.242807250424	3
0	8190	0.243025250424	2
0	8215	0.243811257096	3
0	8221	0.244029257096	2
0	8250	0.244935263768	3
0	8256	0.245153263768	2
0	8264	0.245303263768	3
0	8271	0.245849263768	2
0	8316	0.24675527044	3
0	8321	0.24697327044	2
0	8346	0.247619277112	3
0	8352	0.247837277112	2
0	8382	0.248723283784	3
0	8387	0.248941283784	2
0	8395	0.248991283784	3
0	8402	0.249537283784	2
0	8445	0.250183290456	3
0	8451	0.250401290456	2
0	8503	0.252543297128	3
0	8508	0.252761297128	2
0	8539	0.2535673038	3
0	8544	0.2537853038	2
0	8554	0.2541753038	3
0	8559	0.2547213038	2
0	8604	0.255327310472	3
0	8609	0.255545310472	2
0	8634	0.256231317144	3
0	8639	0.256449317144	2
0	8670	0.257535323816	3
0	8676	0.257753323816	2
0	8685	0.258083323816	3
0	8690	0.258629323816	2
0	8735	0.259295330488	3
0	8740	0.259513330488	2
0	8766	0.26019933716	3
0	8772	0.26041733716	2
0	8802	0.261223343832	3
0	8807	0.261441343832	2
0	8815	0.262051343832	3
0	8821	0.262597343832	2
0	8865	0.263323350504	3
0	8870	0.263541350504	2
0	8896	0.264207357176	3
0	8901	0.264425357176	2
0	8931	0.265291363848	3
0	8937	0.265509363848	2
0	8946	0.265819363848	3
0	8952	0.266365363848	2
0	9023	0.268067377191	3
0	9028	0.268285377191	2
0	9083	0.271667383863	3
0	9088	0.271885383863	2
0	9118	0.272731390535	3
0	9123	0.272949390535	2
0	9131	0.273179390535	3
0	9138	0.273725390535	2
0	9182	0.274331397207	3
0	9188	0.274549397207	2
0	9239	0.276811403879	3
0	9244	0.277029403879	2
0	9276	0.278415410551	3
0	9281	0.278633410551	2
0	9289	0.278863410551	3
0	9294	0.279409410551	2
0	9338	0.280335417223	3
0	9343	0.280553417223	2
0	9367	0.281219423895	3
0	9372	0.281437423895	2
0	9403	0.282223430567	3
0	9408	0.282441430567	2
0	9416	0.282691430567	3
0	9423	0.283237430567	2
0	9467	0.283923437239	3
0	9472	0.284141437239	2
0	9498	0.285127443911	3
0	9503	0.285345443911	2
0	9533	0.286031450583	3
0	9538	0.286249450583	2
0	9547	0.286919450583	3
0	9553	0.287465450583	2
0	9596	0.288351457255	3
0	9602	0.288569457255	2
0	9627	0.289315463927	3
0	9633	0.289533463927	2
0	9662	0.290279470599	3
0	9668	0.290497470599	2
0	9677	0.291027470599	3
0	9684	0.291573470599	2
0	9729	0.292459477271	3
0	9734	0.292677477271	2
0	9759	0.293323483943	3
0	9764	0.293541483943	2
0	9795	0.294307490615	3
0	9800	0.294525490615	2
0	9808	0.294875490615	3
0	9815	0.295421490615	2
0	9859	0.296167497287	3
0	9865	0.296385497287	2
0	9889	0.297131503959	3
0	9894	0.297349503959	2
0	9924	0.298235510631	3
0	9930	0.298453510631	2
0	9939	0.298803510631	3
0	9945	0.299349510631	2
0	9990	0.300355517303	3
0	9996	0.300573517303	2
0	10020	0.301199523975	3
0	10025	0.301417523975	2
0	10055	0.302103530647	3
0	10060	0.302321530647	2
0	10070	0.302891530647	3
0	10076	0.303437530647	2
0	10121	0.304323537319	3
0	10127	0.304541537319	2
0	10151	0.305227543991	3
0	10157	0.305445543991	2
0	10186	0.306111550663	3
0	10192	0.306329550663	2
0	10201	0.306619550663	3
0	10207	0.307165550663	2
0	10251	0.307871557335	3
0	10256	0.308089557335	2
0	10282	0.309035564007	3
0	10287	0.309253564007	2
0	10317	0.309959570679	3
0	10322	0.310177570679	2
0	10331	0.310467570679	3
0	10337	0.311013570679	2
0	10382	0.311859577351	3
0	10387	0.312077577351	2
0	10413	0.312923584023	3
0	10418	0.313141584023	2
0	10448	0.313807590695	3
0	10453	0.314025590695	2
0	10462	0.314315590695	3
0	10468	0.314861590695	2
0	10540	0.316523604038	3
0	10545	0.316741604038	2
0	10572	0.31818761071	3
0	10577	0.31840561071	2
0	10608	0.319371617382	3
0	10613	0.319589617382	2
0	10622	0.319999617382	3
0	10628	0.320545617382	2
0	10672	0.321271624054	3
0	10677	0.321489624054	2
0	10703	0.322295630726	3
0	10708	0.322513630726	2
0	10739	0.323339637398	3
0	10744	0.323557637398	2
0	10752	0.323707637398	3
0	10759	0.324253637398	2
0	10803	0.32487964407	3
0	10808	0.32509764407	2
0	10833	0.325723650742	3
0	10838	0.325941650742	2
0	10868	0.326727657414	3
0	10874	0.326945657414	2
0	10882	0.327475657414	3
0	10887	0.328021657414	2
0	10932	0.328727664086	3
0	10937	0.328945664086	2
0	10963	0.329631670758	3
0	10968	0.329849670758	2
0	10998	0.33067567743	3
0	11003	0.33089367743	2
0	11012	0.33148367743	3
0	11018	0.33202967743	2
0	11063	0.332655684102	3
0	11068	0.332873684102	2
0	11094	0.333679690774	3
0	11099	0.333897690774	2
0	11129	0.334643697446	3
0	11134	0.334861697446	2
0	11144	0.335511697446	3
0	11151	0.336057697446	2
0	11194	0.336663704118	3
0	11200	0.336881704118	2
0	11225	0.33788771079	3
0	11231	0.33810571079	2
0	11261	0.338831717462	3
0	11267	0.339049717462	2
0	11275	0.339239717462	3
0	11281	0.339785717462	2
0	11325	0.340391724134	3
0	11330	0.340609724134	2
0	11356	0.341255730806	3
0	11361	0.341473730806	2
0	11391	0.342479737478	3
0	11397	0.342697737478	2
0	11405	0.342807737478	3
0	11411	0.343353737478	2
0	11456	0.34407974415	3
0	11461	0.34429774415	2
0	11487	0.344923750822	3
0	11492	0.345141750822	2
0	11521	0.345847757494	3
0	11527	0.346065757494	2
0	11535	0.346495757494	3
0	11542	0.347041757494	2
0	11586	0.347947764166	3
0	11592	0.348165764166	2
0	11616	0.348791770838	3
0	11622	0.349009770838	2
0	11653	0.34987577751	3
0	11658	0.35009377751	2
0	11667	0.35040377751	3
0	11673	0.35094977751	2
0	11718	0.351635784182	3
0	11723	0.351853784182	2
0	11749	0.352819790854	3
0	11754	0.353037790854	2
0	11784	0.353663797526	3
0	11789	0.353881797526	2
0	11799	0.354451797526	3
0	11805	0.354997797526	2
0	11849	0.355803804198	3
0	11855	0.356021804198	2
0	11880	0.35692781087	3
0	11886	0.35714581087	2
0	11915	0.357811817542	3
0	11921	0.358029817542	2
0	11930	0.358499817542	3
0	11937	0.359045817542	2
0	12007	0.360747828931	3
0	12013	0.360965828931	2
0	12039	0.362031835603	3
0	12044	0.362249835603	2
0	12075	0.363275842275	3
0	12080	0.363493842275	2
0	12090	0.364123842275	3
0	12095	0.364669842275	2
0	12139	0.365515848947	3
0	12144	0.365733848947	2
0	12170	0.366459855619	3
0	12175	0.366677855619	2
0	12206	0.367323862291	3
0	12211	0.367541862291	2
0	12220	0.367811862291	3
0	12226	0.368357862291	2
0	12269	0.369043868963	3
0	12275	0.369261868963	2
0	12300	0.369967875635	3
0	12305	0.370185875635	2
0	12335	0.370931882307	3
0	12341	0.371149882307	2
0	12349	0.371799882307	3
0	12356	0.372345882307	2
0	12399	0.373151888979	3
0	12405	0.373369888979	2
0	12430	0.374155895651	3
0	12435	0.374373895651	2
0	12465	0.374999902323	3
0	12470	0.375217902323	2
0	12478	0.375327902323	3
0	12485	0.375873902323	2
0	12529	0.376519908995	3
0	12535	0.376737908995	2
0	12560	0.377483915667	3
0	12566	0.377701915667	2
0	12596	0.378467922339	3
0	12601	0.378685922339	2
0	12611	0.379315922339	3
0	12616	0.379861922339	2
0	12661	0.380547929011	3
0	12666	0.380765929011	2
0	12692	0.381551935683	3
0	12697	0.381769935683	2
0	12727	0.382395942355	3
0	12732	0.382613942355	2
0	12741	0.383203942355	3
0	12747	0.383749942355	2
0	12792	0.384395949027	3
0	12797	0.384613949027	2
0	12823	0.385339955699	3
0	12828	0.385557955699	2
0	12859	0.386563962371	3
0	12865	0.386781962371	2
0	12873	0.387091962371	3
0	12879	0.387637962371	2
0	12923	0.388323969043	3
0	12929	0.388541969043	2
0	12954	0.389247975715	3
0	12959	0.389465975715	2
0	12989	0.390391982387	3
0	12995	0.390609982387	2
0	13004	0.390819982387	3
0	13009	0.391365982387	2
0	13054	0.391991989059	3
0	13059	0.392209989059	2
0	13085	0.392915995731	3
0	13090	0.393133995731	2
0	13120	0.393980002403	3
0	13125	0.394198002403	2
0	13135	0.394628002403	3
0	13140	0.395174002403	2
0	13185	0.395940009075	3
0	13190	0.396158009075	2
0	13216	0.396884015747	3
0	13221	0.397102015747	2
0	13251	0.397928022419	3
0	13256	0.398146022419	2
0	13265	0.398516022419	3
0	13271	0.399062022419	2
0	13316	0.399708029091	3
0	13321	0.399926029091	2
0	13346	0.400592035763	3
0	13352	0.400810035763	2
0	13382	0.401936042435	3
0	13388	0.402154042435	2
0	13397	0.402764042435	3
0	13404	0.403310042435	2
0	13448	0.404136049107	3
0	13454	0.404354049107	2
0	13478	0.405020055779	3
0	13484	0.405238055779	2
0	13514	0.406084062451	3
0	13520	0.406302062451	2
0	13528	0.406872062451	3
0	13535	0.407418062451	2
0	13580	0.408184069123	3
0	13585	0.408402069123	2
0	13610	0.409268075795	3
0	13615	0.409486075795	2
0	13646	0.410192082467	3
0	13651	0.410410082467	2
0	13660	0.410780082467	3
0	13666	0.411326082467	2
0	13710	0.412032089139	3
0	13716	0.412250089139	2
0	13740	0.412936095811	3
0	13745	0.413154095811	2
0	13776	0.414140102483	3
0	13782	0.414358102483	2
0	13790	0.414568102483	3
0	13796	0.415114102483	2
0	13840	0.415920109155	3
0	13846	0.416138109155	2
0	13871	0.416764115827	3
0	13876	0.416982115827	2
0	13906	0.417808122499	3
0	13911	0.418026122499	2
0	13919	0.418076122499	3
0	13926	0.418622122499	2
0	13970	0.419308129171	3
0	13976	0.419526129171	2
0	14001	0.420332135843	3
0	14007	0.420550135843	2
0	14037	0.421336142515	3
0	14042	0.421554142515	2
0	14050	0.421664142515	3
0	14056	0.422210142515	2
0	14100	0.422816149187	3
0	14106	0.423034149187	2
0	14132	0.424180155859	3
0	14138	0.424398155859	2
0	14167	0.425084162531	3
0	14173	0.425302162531	2
0	14181	0.425892162531	3
0	14188	0.426438162531	2
0	14233	0.427164169203	3
0	14238	0.427382169203	2
0	14264	0.428208175875	3
0	14269	0.428426175875	2
0	14299	0.429212182547	3
0	14305	0.429430182547	2
0	14314	0.429920182547	3
0	14320	0.430466182547	2
0	14364	0.431092189219	3
0	14369	0.431310189219	2
0	14395	0.431976195891	3
0	14400	0.432194195891	2
0	14431	0.432840202563	3
0	14437	0.433058202563	2
0	14445	0.433648202563	3
0	14451	0.434194202563	2
0	14495	0.434900209235	3
0	14501	0.435118209235	2
0	14526	0.436024215907	3
0	14531	0.436242215907	2
0	14561	0.437008222579	3
0	14567	0.437226222579	2
0	14576	0.437636222579	3
0	14581	0.438182222579	2
0	14626	0.439148229251	3
0	14632	0.439366229251	2
0	14657	0.440112235923	3
0	14662	0.440330235923	2
0	14692	0.441036242595	3
0	14698	0.441254242595	2
0	14707	0.441444242595	3
0	14713	0.441990242595	2
0	14757	0.442736249267	3
0	14763	0.442954249267	2
0	14788	0.443740255939	3
0	14793	0.443958255939	2
0	14823	0.444664262611	3
0	14828	0.444882262611	2
0	14838	0.445152262611	3
0	14843	0.445698262611	2
0	14888	0.446824269283	3
0	14894	0.447042269283	2
0	14919	0.447668275955	3
0	14924	0.447886275955	2
0	14954	0.448532282627	3
0	14959	0.448750282627	2
0	14967	0.448960282627	3
0	14974	0.449506282627	2
0	15046	0.45130829597	3
0	15051	0.45152629597	2
0	15076	0.452592302642	3
0	15082	0.452810302642	2
0	15113	0.453776309314	3
0	15119	0.453994309314	2
0	15127	0.454084309314	3
0	15132	0.454630309314	2
0	15177	0.455236315986	3
0	15182	0.455454315986	2
0	15207	0.456200322658	3
0	15212	0.456418322658	2
0	15243	0.45744432933	3
0	15249	0.45766232933	2
0	15258	0.45805232933	3
0	15264	0.45859832933	2
0	15308	0.459224336002	3
0	15313	0.459442336002	2
0	15338	0.460228342674	3
0	15344	0.460446342674	2
0	15374	0.461372349346	3
0	15380	0.461590349346	2
0	15388	0.461820349346	3
0	15393	0.462366349346	2
0	15438	0.463072356018	3
0	15443	0.463290356018	2
0	15469	0.46401636269	3
0	15474	0.46423436269	2
0	15504	0.464960369362	3
0	15509	0.465178369362	2
0	15519	0.465728369362	3
0	15525	0.466274369362	2
0	15569	0.467080376034	3
0	15574	0.467298376034	2
0	15600	0.468104382706	3
0	15605	0.468322382706	2
0	15635	0.468968389378	3
0	15640	0.469186389378	2
0	15650	0.469716389378	3
0	15656	0.470262389378	2
0	15700	0.47114839605	3
0	15706	0.47136639605	2
0	15731	0.472152402722	3
0	15737	0.472370402722	2
0	15766	0.473036409394	3
0	15772	0.473254409394	2
0	15781	0.473644409394	3
0	15787	0.474190409394	2
0	15832	0.474956416066	3
0	15837	0.475174416066	2
0	15862	0.475820422738	3
0	15867	0.476038422738	2
0	15897	0.47676442941	3
0	15902	0.47698242941	2
0	15912	0.47741242941	3
0	15917	0.47795842941	2
0	15962	0.478804436082	3
0	15968	0.479022436082	2
0	15993	0.479648442754	3
0	15998	0.479866442754	2
0	16028	0.480712449426	3
0	16033	0.480930449426	2
0	16041	0.481060449426	3
0	16048	0.481606449426	2
0	16093	0.482652456098	3
0	16098	0.482870456098	2
0	16124	0.48351646277	3
0	16129	0.48373446277	2
0	16159	0.484400469442	3
0	16164	0.484618469442	2
0	16172	0.484748469442	3
0	16179	0.485294469442	2
0	16223	0.485960476114	3
0	16229	0.486178476114	2
0	16254	0.486964482786	3
0	16260	0.487182482786	2
0	16290	0.488068489458	3
0	16295	0.488286489458	2
0	16303	0.488576489458	3
0	16310	0.489122489458	2
0	16381	0.490904500847	3
0	16387	0.491122500847	2
0	16412	0.491748507519	3
0	16417	0.491966507519	2
0	16448	0.492992514191	3
0	16453	0.493210514191	2
0	16461	0.493460514191	3
0	16468	0.494006514191	2
0	16513	0.494852520863	3
0	16518	0.495070520863	2
0	16543	0.495796527535	3
0	16549	0.496014527535	2
0	16579	0.496860534207	3
0	16585	0.497078534207	2
0	16594	0.497228534207	3
0	16599	0.497774534207	2
0	16644	0.498380540879	3
0	16649	0.498598540879	2
0	16674	0.499524547551	3
0	16680	0.499742547551	2
0	16709	0.500648554223	3
0	16714	0.500866554223	2
0	16724	0.501136554223	3
0	16729	0.501682554223	2
0	16774	0.502508560895	3
0	16779	0.502726560895	2
0	16805	0.503352567567	3
0	16810	0.503570567567	2
0	16840	0.504556574239	3
0	16845	0.504774574239	2
0	16854	0.505064574239	3
0	16860	0.505610574239	2
0	16905	0.506516580911	3
0	16910	0.506734580911	2
0	16936	0.507520587583	3
0	16941	0.507738587583	2
0	16972	0.508464594255	3
0	16978	0.508682594255	2
0	16986	0.509112594255	3
0	16992	0.509658594255	2
0	17036	0.510284600927	3
0	17041	0.510502600927	2
0	17067	0.511168607599	3
0	17072	0.511386607599	2
0	17102	0.512172614271	3
0	17107	0.512390614271	2
0	17117	0.513000614271	3
0	17123	0.513546614271	2
0	17192	0.514808627614	3
0	17197	0.515026627614	2
0	17222	0.515912634286	3
0	17227	0.516130634286	2
0	17258	0.517296640958	3
0	17264	0.517514640958	2
0	17272	0.517684640958	3
0	17278	0.518230640958	2
0	17323	0.51895664763	3
0	17328	0.51917464763	2
0	17353	0.519980654302	3
0	17358	0.520198654302	2
0	17389	0.521004660974	3
0	17395	0.521222660974	2
0	17404	0.521612660974	3
0	17409	0.522158660974	2
0	17454	0.522864667646	3
0	17459	0.523082667646	2
0	17484	0.524108674318	3
0	17490	0.524326674318	2
0	17520	0.52501268099	3
0	17526	0.52523068099	2
0	17534	0.52582068099	3
0	17541	0.52636668099	2
0	17609	0.527988694333	3
0	17614	0.528206694333	2
0	17665	0.529948701005	3
0	17671	0.530166701005	2
0	17704	0.532192707677	3
0	17709	0.532410707677	2
0	17717	0.532640707677	3
0	17724	0.533186707677	2
0	17767	0.533812714349	3
0	17772	0.534030714349	2
0	17798	0.534896721021	3
0	17804	0.535114721021	2
0	17834	0.535980727693	3
0	17839	0.536198727693	2
0	17848	0.536508727693	3
0	17853	0.537054727693	2
0	17897	0.537880734365	3
0	17903	0.538098734365	2
0	17928	0.538764741037	3
0	17934	0.538982741037	2
0	17963	0.539908747709	3
0	17969	0.540126747709	2
0	17978	0.540236747709	3
0	17983	0.540782747709	2
0	18053	0.542424759098	3
0	18058	0.542642759098	2
0	18084	0.54382876577	3
0	18090	0.54404676577	2
0	18121	0.545252772442	3
0	18126	0.545470772442	2
0	18134	0.545840772442	3
0	18141	0.546386772442	2
0	18184	0.546992779114	3
0	18190	0.547210779114	2
0	18215	0.547916785786	3
0	18221	0.548134785786	2
0	18252	0.549200792458	3
0	18257	0.549418792458	2
0	18266	0.550048792458	3
0	18272	0.550594792458	2
0	18316	0.55134079913	3
0	18322	0.55155879913	2
0	18346	0.552304805802	3
0	18352	0.552522805802	2
0	18382	0.553208812474	3
0	18387	0.553426812474	2
0	18396	0.554036812474	3
0	18402	0.554582812474	2
0	18445	0.555188819146	3
0	18451	0.555406819146	2
0	18476	0.556212825818	3
0	18482	0.556430825818	2
0	18513	0.55723683249	3
0	18518	0.55745483249	2
0	18527	0.55812483249	3
0	18533	0.55867083249	2
0	18578	0.559636839162	3
0	18583	0.559854839162	2
0	18608	0.560640845834	3
0	18613	0.560858845834	2
0	18643	0.561504852506	3
0	18649	0.561722852506	2
0	18658	0.562352852506	3
0	18664	0.562898852506	2
0	18709	0.563644859178	3
0	18714	0.563862859178	2
0	18739	0.56480886585	3
0	18744	0.56502686585	2
0	18775	0.565712872522	3
0	18780	0.565930872522	2
0	18790	0.566560872522	3
0	18795	0.567106872522	2
0	18840	0.567852879194	3
0	18845	0.568070879194	2
0	18870	0.568996885866	3
0	18875	0.569214885866	2
0	18906	0.569880892538	3
0	18911	0.570098892538	2
0	18920	0.570708892538	3
0	18926	0.571254892538	2
0	18971	0.57206089921	3
0	18976	0.57227889921	2
0	19001	0.572924905882	3
0	19006	0.573142905882	2
0	19036	0.573848912554	3
0	19042	0.574066912554	2
0	19050	0.574656912554	3
0	19057	0.575202912554	2
0	19102	0.575948919226	3
0	19107	0.576166919226	2
0	19131	0.577012925898	3
0	19137	0.577230925898	2
0	19167	0.57801693257	3
0	19173	0.57823493257	2
0	19181	0.57866493257	3
0	19187	0.57921093257	2
0	19231	0.579816939242	3
0	19237	0.580034939242	2
0	19262	0.580880945914	3
0	19267	0.581098945914	2
0	19298	0.582064952586	3
0	19304	0.582282952586	2
0	19312	0.582712952586	3
0	19319	0.583258952586	2
0	19363	0.583864959258	3
0	19369	0.584082959258	2
0	19393	0.58512896593	3
0	19399	0.58534696593	2
0	19429	0.586112972602	3
0	19435	0.586330972602	2
0	19443	0.586920972602	3
0	19450	0.587466972602	2
0	19495	0.588252979274	3
0	19500	0.588470979274	2
0	19525	0.589336985946	3
0	19530	0.589554985946	2
0	19561	0.590340992618	3
0	19566	0.590558992618	2
0	19575	0.591008992618	3
0	19581	0.591554992618	2
0	19625	0.59228099929	3
0	19631	0.59249899929	2
0	19655	0.593245005962	3
0	19661	0.593463005962	2
0	19692	0.594249012634	3
0	19697	0.594467012634	2
0	19705	0.595097012634	3
0	19712	0.595643012634	2
0	19757	0.596609019306	3
0	19762	0.596827019306	2
0	19787	0.597473025978	3
0	19792	0.597691025978	2
0	19823	0.59847703265	3
0	19828	0.59869503265	2
0	19837	0.59936503265	3
0	19843	0.59991103265	2
0	19887	0.600557039322	3
0	19893	0.600775039322	2
0	19918	0.601681045994	3
0	19923	0.601899045994	2
0	19954	0.602545052666	3
0	19959	0.602763052666	2
0	19968	0.603393052666	3
0	19974	0.603939052666	2
0	20019	0.604765059338	3
0	20024	0.604983059338	2
0	20048	0.60562906601	3
0	20054	0.60584706601	2
0	20083	0.606573072682	3
0	20089	0.606791072682	2
0	20098	0.607141072682	3
0	20104	0.607687072682	2
0	20148	0.608433079354	3
0	20154	0.608651079354	2
0	20179	0.609437086026	3
0	20184	0.609655086026	2
0	20214	0.610501092698	3
0	20220	0.610719092698	2
0	20229	0.611309092698	3
0	20235	0.611855092698	2
0	20280	0.61268109937	3
0	20286	0.61289909937	2
0	20310	0.613665106042	3
0	20315	0.613883106042	2
0	20345	0.614689112714	3
0	20351	0.614907112714	2
0	20360	0.615077112714	3
0	20366	0.615623112714	2
0	20411	0.616669119386	3
0	20417	0.616887119386	2
0	20441	0.617533126058	3
0	20447	0.617751126058	2
0	20476	0.61839713273	3
0	20482	0.61861513273	2
0	20491	0.61876513273	3
0	20496	0.61931113273	2
0	20541	0.619937139402	3
0	20546	0.620155139402	2
0	20572	0.621041146074	3
0	20577	0.621259146074	2
0	20607	0.622145152746	3
0	20612	0.622363152746	2
0	20620	0.622453152746	3
0	20627	0.622999152746	2
0	20671	0.623865159418	3
0	20677	0.624083159418	2
0	20702	0.62480916609	3
0	20708	0.62502716609	2
0	20738	0.625693172762	3
0	20743	0.625911172762	2
0	20751	0.626161172762	3
0	20757	0.626707172762	2
0	20801	0.627453179434	3
0	20807	0.627671179434	2
0	20833	0.628397186106	3
0	20839	0.628615186106	2
0	20869	0.629401192778	3
0	20874	0.629619192778	2
0	20882	0.629829192778	3
0	20889	0.630375192778	2
0	20933	0.63122119945	3
0	20939	0.63143919945	2
0	20963	0.632125206122	3
0	20969	0.632343206122	2
0	20999	0.632969212794	3
0	21005	0.633187212794	2
0	21013	0.633717212794	3
0	21020	0.634263212794	2
0	21064	0.634869219466	3
0	21070	0.635087219466	2
0	21095	0.635813226138	3
0	21101	0.636031226138	2
0	21131	0.63683723281	3
0	21136	0.63705523281	2
0	21145	0.63746523281	3
0	21151	0.63801123281	2
0	21196	0.638757239482	3
0	21201	0.638975239482	2
0	21227	0.639841246154	3
0	21232	0.640059246154	2
0	21262	0.640725252826	3
0	21267	0.640943252826	2
0	21275	0.641073252826	3
0	21282	0.641619252826	2
0	21326	0.642225259498	3
0	21332	0.642443259498	2
0	21357	0.64306926617	3
0	21363	0.64328726617	2
0	21393	0.644393272842	3
0	21398	0.644611272842	2
0	21408	0.645141272842	3
0	21413	0.645687272842	2
0	21458	0.646333279514	3
0	21463	0.646551279514	2
0	21489	0.647537286186	3
0	21494	0.647755286186	2
0	21524	0.648381292858	3
0	21529	0.648599292858	2
0	21539	0.649069292858	3
0	21544	0.649615292858	2
0	21589	0.65028129953	3
0	21594	0.65049929953	2
0	21620	0.651125306202	3
0	21625	0.651343306202	2
0	21655	0.652189312874	3
0	21661	0.652407312874	2
0	21670	0.652817312874	3
0	21677	0.653363312874	2
0	21720	0.653989319546	3
0	21725	0.654207319546	2
0	21778	0.656949326218	3
0	21783	0.657167326218	2
0	21814	0.65787333289	3
0	21819	0.65809133289	2
0	21827	0.65822133289	3
0	21834	0.65876733289	2
0	21877	0.659373339562	3
0	21882	0.659591339562	2
0	21908	0.660457346234	3
0	21914	0.660675346234	2
0	21945	0.661521352906	3
0	21950	0.661739352906	2
0	21958	0.661929352906	3
0	21965	0.662475352906	2
0	22008	0.663101359578	3
0	22013	0.663319359578	2
0	22039	0.66404536625	3
0	22045	0.66426336625	2
0	22075	0.665169372922	3
0	22080	0.665387372922	2
0	22088	0.665577372922	3
0	22093	0.666123372922	2
0	22136	0.666769379594	3
0	22142	0.666987379594	2
0	22167	0.667633386266	3
0	22172	0.667851386266	2
0	22203	0.668477392938	3
0	22208	0.668695392938	2
0	22217	0.669185392938	3
0	22224	0.669731392938	2
0	22268	0.67047739961	3
0	22274	0.67069539961	2
0	22298	0.671401406282	3
0	22304	0.671619406282	2
0	22334	0.672345412954	3
0	22340	0.672563412954	2
0	22349	0.673213412954	3
0	22355	0.673759412954	2
0	22400	0.674365419626	3
0	22405	0.674583419626	2
0	22431	0.675549426298	3
0	22436	0.675767426298	2
0	22466	0.67643343297	3
0	22471	0.67665143297	2
0	22481	0.67726143297	3
0	22487	0.67780743297	2
0	22532	0.678553439642	3
0	22538	0.678771439642	2
0	22562	0.679537446314	3
0	22568	0.679755446314	2
0	22598	0.680621452986	3
0	22604	0.680839452986	2
0	22612	0.681069452986	3
0	22618	0.681615452986	2
0	22689	0.683277466329	3
0	22694	0.683495466329	2
0	22719	0.684221473001	3
0	22725	0.684439473001	2
0	22757	0.685825479673	3
0	22762	0.686043479673	2
0	22771	0.686513479673	3
0	22777	0.687059479673	2
0	22820	0.687785486345	3
0	22826	0.688003486345	2
0	22852	0.688889493017	3
0	22857	0.689107493017	2
0	22888	0.689853499689	3
0	22893	0.690071499689	2
0	22901	0.690141499689	3
0	22907	0.690687499689	2
0	22952	0.691713506361	3
0	22957	0.691931506361	2
0	22982	0.692717513033	3
0	22987	0.692935513033	2
0	23018	0.693561519705	3
0	23023	0.693779519705	2
0	23031	0.694189519705	3
0	23038	0.694735519705	2
0	23081	0.695461526377	3
0	23086	0.695679526377	2
0	23112	0.696385533049	3
0	23117	0.696603533049	2
0	23147	0.697549539721	3
0	23152	0.697767539721	2
0	23161	0.697877539721	3
0	23167	0.698423539721	2
0	23211	0.699069546393	3
0	23217	0.699287546393	2
0	23243	0.700233553065	3
0	23248	0.700451553065	2
0	23278	0.701297559737	3
0	23283	0.701515559737	2
0	23291	0.701565559737	3
0	23298	0.702111559737	2
0	23342	0.702717566409	3
0	23348	0.702935566409	2
0	23373	0.703561573081	3
0	23379	0.703779573081	2
0	23408	0.704565579753	3
0	23414	0.704783579753	2
0	23422	0.704833579753	3
0	23427	0.705379579753	2
0	23472	0.706085586425	3
0	23477	0.706303586425	2
0	23503	0.706969593097	3
0	23508	0.707187593097	2
0	23539	0.707913599769	3
0	23544	0.708131599769	2
0	23552	0.708421599769	3
0	23558	0.708967599769	2
0	23603	0.709893606441	3
0	23608	0.710111606441	2
0	23634	0.710877613113	3
0	23639	0.711095613113	2
0	23670	0.711801619785	3
0	23675	0.712019619785	2
0	23683	0.712069619785	3
0	23689	0.712615619785	2
0	23734	0.713401626457	3
0	23740	0.713619626457	2
0	23765	0.714465633129	3
0	23771	0.714683633129	2
0	23801	0.715349639801	3
0	23807	0.715567639801	2
0	23816	0.716157639801	3
0	23822	0.716703639801	2
0	23867	0.717369646473	3
0	23872	0.717587646473	2
0	23898	0.718413653145	3
0	23903	0.718631653145	2
0	23933	0.719557659817	3
0	23938	0.719775659817	2
0	23948	0.720425659817	3
0	23954	0.720971659817	2
0	23998	0.721577666489	3
0	24004	0.721795666489	2
0	24030	0.722901673161	3
0	24035	0.723119673161	2
0	24066	0.723805679833	3
0	24071	0.724023679833	2
0	24080	0.724553679833	3
0	24086	0.725099679833	2
0	24131	0.725825686505	3
0	24136	0.726043686505	2
0	24161	0.726729693177	3
0	24166	0.726947693177	2
0	24197	0.727733699849	3
0	24202	0.727951699849	2
0	24211	0.728501699849	3
0	24217	0.729047699849	2
0	24261	0.729653706521	3
0	24267	0.729871706521	2
0	24291	0.730497713193	3
0	24296	0.730715713193	2
0	24326	0.731461719865	3
0	24332	0.731679719865	2
0	24341	0.731849719865	3
0	24346	0.732395719865	2
0	24390	0.733021726537	3
0	24396	0.733239726537	2
0	24422	0.734205733209	3
0	24427	0.734423733209	2
0	24457	0.735269739881	3
0	24462	0.735487739881	2
0	24472	0.736077739881	3
0	24477	0.736623739881	2
0	24522	0.737289746553	3
0	24527	0.737507746553	2
0	24553	0.738313753225	3
0	24558	0.738531753225	2
0	24588	0.739497759897	3
0	24594	0.739715759897	2
0	24603	0.740065759897	3
0	24609	0.740611759897	2
0	24653	0.741257766569	3
0	24659	0.741475766569	2
0	24684	0.742341773241	3
0	24690	0.742559773241	2
0	24721	0.743445779913	3
0	24726	0.743663779913	2
0	24734	0.744093779913	3
0	24741	0.744639779913	2
0	24784	0.745245786585	3
0	24790	0.745463786585	2
0	24815	0.746429793257	3
0	24821	0.746647793257	2
0	24851	0.747413799929	3
0	24857	0.747631799929	2
0	24865	0.748201799929	3
0	24872	0.748747799929	2
0	24915	0.749393806601	3
0	24921	0.749611806601	2
0	24947	0.750677813273	3
0	24952	0.750895813273	2
0	24983	0.751601819945	3
0	24988	0.751819819945	2
0	24996	0.752209819945	3
0	25003	0.752755819945	2
0	25047	0.753641826617	3
0	25053	0.753859826617	2
0	25077	0.754565833289	3
0	25083	0.754783833289	2
0	25114	0.755569839961	3
0	25119	0.755787839961	2
0	25127	0.756237839961	3
0	25134	0.756783839961	2
0	25178	0.757549846633	3
0	25184	0.757767846633	2
0	25235	0.760509853305	3
0	25241	0.760727853305	2
0	25272	0.761653859977	3
0	25278	0.761871859977	2
0	25286	0.762401859977	3
0	25292	0.762947859977	2
0	25336	0.763633866649	3
0	25341	0.763851866649	2
0	25367	0.764557873321	3
0	25372	0.764775873321	2
0	25403	0.765641879993	3
0	25409	0.765859879993	2
0	25417	0.765909879993	3
0	25422	0.766455879993	2
0	25466	0.767481886665	3
0	25472	0.767699886665	2
0	25497	0.768405893337	3
0	25502	0.768623893337	2
0	25532	0.769249900009	3
0	25537	0.769467900009	2
0	25545	0.769937900009	3
0	25550	0.770483900009	2
0	25595	0.771109906681	3
0	25600	0.771327906681	2
0	25626	0.772353913353	3
0	25631	0.772571913353	2
0	25661	0.773197920025	3
0	25666	0.773415920025	2
0	25674	0.773565920025	3
0	25681	0.774111920025	2
0	25725	0.774737926697	3
0	25731	0.774955926697	2
0	25756	0.775681933369	3
0	25762	0.775899933369	2
0	25792	0.776585940041	3
0	25797	0.776803940041	2
0	25805	0.777033940041	3
0	25811	0.777579940041	2
0	25855	0.778285946713	3
0	25861	0.778503946713	2
0	25886	0.779129953385	3
0	25892	0.779347953385	2
0	25922	0.779973960057	3
0	25927	0.780191960057	2
0	25936	0.780681960057	3
0	25942	0.781227960057	2
0	25986	0.781973966729	3
0	25991	0.782191966729	2
0	26017	0.782857973401	3
0	26022	0.783075973401	2
0	26053	0.784101980073	3
0	26059	0.784319980073	2
0	26067	0.784489980073	3
0	26074	0.785035980073	2
0	26119	0.786101986745	3
0	26124	0.786319986745	2
0	26150	0.786945993417	3
0	26155	0.787163993417	2
0	26185	0.787850000089	3
0	26190	0.788068000089	2
0	26198	0.788158000089	3
0	26205	0.788704000089	2
0	26249	0.789310006761	3
0	26255	0.789528006761	2
0	26281	0.790334013433	3
0	26286	0.790552013433	2
0	26316	0.791358020105	3
0	26321	0.791576020105	2
0	26331	0.792226020105	3
0	26336	0.792772020105	2
0	26381	0.793438026777	3
0	26386	0.793656026777	2
0	26412	0.794482033449	3
0	26417	0.794700033449	2
0	26447	0.795586040121	3
0	26452	0.795804040121	2
0	26462	0.796394040121	3
0	26468	0.796940040121	2
0	26513	0.797866046793	3
0	26519	0.798084046793	2
0	26544	0.798790053465	3
0	26549	0.799008053465	2
0	26580	0.799694060137	3
0	26585	0.799912060137	2
0	26594	0.800402060137	3
0	26600	0.800948060137	2
0	26645	0.801654066809	3
0	26650	0.801872066809	2
0	26674	0.802578073481	3
0	26680	0.802796073481	2
0	26710	0.803542080153	3
0	26716	0.803760080153	2
0	26724	0.804090080153	3
0	26730	0.804636080153	2
0	26774	0.805262086825	3
0	26779	0.805480086825	2
0	26805	0.806226093497	3
0	26810	0.806444093497	2
0	26840	0.807430100169	3
0	26845	0.807648100169	2
0	26853	0.807838100169	3
0	26860	0.808384100169	2
0	26904	0.808990106841	3
0	26910	0.809208106841	2
0	26935	0.809834113513	3
0	26941	0.810052113513	2
0	26970	0.810938120185	3
0	26976	0.811156120185	2
0	26984	0.811226120185	3
0	26990	0.811772120185	2
0	27035	0.812638126857	3
0	27041	0.812856126857	2
0	27065	0.813482133529	3
0	27071	0.813700133529	2
0	27101	0.814626140201	3
0	27107	0.814844140201	2
0	27116	0.815474140201	3
0	27122	0.816020140201	2
0	27167	0.816706146873	3
0	27172	0.816924146873	2
0	27198	0.817690153545	3
0	27203	0.817908153545	2
0	27233	0.818694160217	3
0	27238	0.818912160217	2
0	27248	0.819382160217	3
0	27254	0.819928160217	2
0	27298	0.820894166889	3
0	27304	0.821112166889	2
0	27330	0.821798173561	3
0	27335	0.822016173561	2
0	27365	0.822702180233	3
0	27371	0.822920180233	2
0	27380	0.823490180233	3
0	27386	0.824036180233	2
0	27430	0.824702186905	3
0	27436	0.824920186905	2
0	27460	0.825706193577	3
0	27465	0.825924193577	2
0	27496	0.826910200249	3
0	27502	0.827128200249	2
0	27510	0.827238200249	3
0	27516	0.827784200249	2
0	27560	0.828410206921	3
0	27565	0.828628206921	2
0	27591	0.829314213593	3
0	27596	0.829532213593	2
0	27626	0.830538220265	3
0	27631	0.830756220265	2
0	27640	0.830986220265	3
0	27646	0.831532220265	2
0	27691	0.832358226937	3
0	27696	0.832576226937	2
0	27747	0.834318233609	3
0	27752	0.834536233609	2
0	27783	0.835442240281	3
0	27788	0.835660240281	2
0	27797	0.835870240281	3
0	27803	0.836416240281	2
0	27848	0.837142246953	3
0	27853	0.837360246953	2
0	27878	0.838186253625	3
0	27884	0.838404253625	2
0	27914	0.839230260297	3
0	27920	0.839448260297	2
0	27928	0.839498260297	3
0	27934	0.840044260297	2
0	28003	0.84176627364	3
0	28008	0.84198427364	2
0	28034	0.842610280312	3
0	28039	0.842828280312	2
0	28069	0.844174286984	3
0	28075	0.844392286984	2
0	28084	0.844942286984	3
0	28090	0.845488286984	2
0	28135	0.846474293656	3
0	28140	0.846692293656	2
0	28165	0.847318300328	3
0	28171	0.847536300328	2
0	28201	0.848242307	3
0	28207	0.848460307	2
0	28215	0.848510307	3
0	28220	0.849056307	2
0	28265	0.849862313672	3
0	28271	0.850080313672	2
0	28295	0.850786320344	3
0	28300	0.851004320344	2
0	28331	0.851930327016	3
0	28337	0.852148327016	2
0	28345	0.852218327016	3
0	28351	0.852764327016	2
0	28395	0.853390333688	3
0	28400	0.853608333688	2
0	28425	0.85431434036	3
0	28431	0.85453234036	2
0	28461	0.855518347032	3
0	28466	0.855736347032	2
0	28474	0.856026347032	3
0	28480	0.856572347032	2
0	28525	0.857438353704	3
0	28531	0.857656353704	2
0	28556	0.858322360376	3
0	28562	0.858540360376	2
0	28592	0.859186367048	3
0	28597	0.859404367048	2
0	28606	0.859934367048	3
0	28612	0.860480367048	2
0	28657	0.86132637372	3
0	28662	0.86154437372	2
0	28688	0.862290380392	3
0	28693	0.862508380392	2
0	28723	0.863254387064	3
0	28729	0.863472387064	2
0	28737	0.863562387064	3
0	28743	0.864108387064	2
0	28788	0.864814393736	3
0	28793	0.865032393736	2
0	28819	0.865838400408	3
0	28824	0.866056400408	2
0	28854	0.86698240708	3
0	28859	0.86720040708	2
0	28867	0.86725040708	3
0	28874	0.86779640708	2
0	28918	0.868442413752	3
0	28924	0.868660413752	2
0	28949	0.869306420424	3
0	28955	0.869524420424	2
0	28985	0.870670427096	3
0	28990	0.870888427096	2
0	28998	0.871218427096	3
0	29005	0.871764427096	2
0	29049	0.872370433768	3
0	29055	0.872588433768	2
0	29079	0.87321444044	3
0	29085	0.87343244044	2
0	29116	0.874618447112	3
0	29122	0.874836447112	2
0	29130	0.875026447112	3
0	29136	0.875572447112	2
0	29181	0.876498453784	3
0	29186	0.876716453784	2
0	29239	0.878898460456	3
0	29244	0.879116460456	2
0	29275	0.880242467128	3
0	29280	0.880460467128	2
0	29289	0.880690467128	3
0	29295	0.881236467128	2
0	29363	0.882538480471	3
0	29369	0.882756480471	2
0	29395	0.884382487143	3
0	29400	0.884600487143	2
0	29431	0.885266493815	3
0	29436	0.885484493815	2
0	29445	0.885894493815	3
0	29450	0.886440493815	2
0	29519	0.888002505204	3
0	29524	0.888220505204	2
0	29549	0.888966511876	3
0	29555	0.889184511876	2
0	29585	0.890270518548	3
0	29591	0.890488518548	2
0	29599	0.890958518548	3
0	29605	0.891504518548	2
0	29649	0.89235052522	3
0	29655	0.89256852522	2
0	29680	0.893214531892	3
0	29685	0.893432531892	2
0	29714	0.894118538564	3
0	29719	0.894336538564	2
0	29728	0.894566538564	3
0	29734	0.895112538564	2
0	29779	0.895798545236	3
0	29784	0.896016545236	2
0	29809	0.896802551908	3
0	29814	0.897020551908	2
0	29844	0.89798655858	3
0	29850	0.89820455858	2
0	29859	0.89871455858	3
0	29866	0.89926055858	2
0	29909	0.900246565252	3
0	29915	0.900464565252	2
0	29940	0.901230571924	3
0	29945	0.901448571924	2
0	29975	0.902134578596	3
0	29981	0.902352578596	2
0	29990	0.902982578596	3
0	29997	0.903528578596	2
0	30041	0.904134585268	3
0	30047	0.904352585268	2
0	30072	0.90531859194	3
0	30077	0.90553659194	2
0	30108	0.906402598612	3
0	30113	0.906620598612	2
0	30123	0.907070598612	3
0	30128	0.907616598612	2
0	30173	0.908302605284	3
0	30178	0.908520605284	2
0	30202	0.909226611956	3
0	30208	0.909444611956	2
0	30237	0.910150618628	3
0	30243	0.910368618628	2
0	30252	0.910918618628	3
0	30259	0.911464618628	2
0	30304	0.9124506253	3
0	30309	0.9126686253	2
0	30333	0.913414631972	3
0	30339	0.913632631972	2
0	30369	0.914258638644	3
0	30375	0.914476638644	2
0	30383	0.915086638644	3
0	30390	0.915632638644	2
0	30434	0.916398645316	3
0	30439	0.916616645316	2
0	30464	0.917322651988	3
0	30469	0.917540651988	2
0	30500	0.91834665866	3
0	30506	0.91856465866	2
0	30514	0.91889465866	3
0	30520	0.91944065866	2
0	30565	0.920206665332	3
0	30571	0.920424665332	2
0	30595	0.921090672004	3
0	30600	0.921308672004	2
0	30630	0.922034678676	3
0	30635	0.922252678676	2
0	30644	0.922502678676	3
0	30650	0.923048678676	2
0	30695	0.924114685348	3
0	30701	0.924332685348	2
0	30726	0.92495869202	3
0	30731	0.92517669202	2
0	30761	0.925802698692	3
0	30766	0.926020698692	2
0	30775	0.926430698692	3
0	30781	0.926976698692	2
0	30826	0.927682705364	3
0	30831	0.927900705364	2
0	30857	0.928606712036	3
0	30862	0.928824712036	2
0	30892	0.929530718708	3
0	30897	0.929748718708	2
0	30906	0.930218718708	3
0	30912	0.930764718708	2
0	30957	0.93155072538	3
0	30962	0.93176872538	2
0	30988	0.932574732052	3
0	30993	0.932792732052	2
0	31023	0.933438738724	3
0	31028	0.933656738724	2
0	31036	0.933966738724	3
0	31043	0.934512738724	2
0	31088	0.935378745396	3
0	31093	0.935596745396	2
0	31119	0.936302752068	3
0	31124	0.936520752068	2
0	31154	0.93722675874	3
0	31159	0.93744475874	2
0	31169	0.93807475874	3
0	31175	0.93862075874	2
0	31219	0.939246765412	3
0	31224	0.939464765412	2
0	31250	0.940450772084	3
0	31255	0.940668772084	2
0	31285	0.941314778756	3
0	31290	0.941532778756	2
0	31300	0.942082778756	3
0	31306	0.942628778756	2
0	31350	0.943394785428	3
0	31356	0.943612785428	2
0	31381	0.9443587921	3
0	31387	0.9445767921	2
0	31417	0.945462798772	3
0	31423	0.945680798772	2
0	31431	0.945890798772	3
0	31437	0.946436798772	2
0	31481	0.947062805444	3
0	31487	0.947280805444	2
0	31512	0.947906812116	3
0	31517	0.948124812116	2
0	31547	0.949130818788	3
0	31553	0.949348818788	2
0	31561	0.949418818788	3
0	31567	0.949964818788	2
0	31612	0.95071082546	3
0	31617	0.95092882546	2
0	31643	0.951554832132	3
0	31648	0.951772832132	2
0	31677	0.952598838804	3
0	31683	0.952816838804	2
0	31691	0.953326838804	3
0	31698	0.953872838804	2
0	31743	0.954738845476	3
0	31748	0.954956845476	2
0	31773	0.955622852148	3
0	31779	0.955840852148	2
0	31809	0.95672685882	3
0	31814	0.95694485882	2
0	31823	0.95719485882	3
0	31829	0.95774085882	2
0	31874	0.958406865492	3
0	31879	0.958624865492	2
0	31904	0.959310872164	3
0	31910	0.959528872164	2
0	31940	0.960494878836	3
0	31946	0.960712878836	2
0	31955	0.961182878836	3
0	31961	0.961728878836	2
0	32005	0.962374885508	3
0	32011	0.962592885508	2
0	32036	0.96335889218	3
0	32041	0.96357689218	2
0	32071	0.964202898852	3
0	32076	0.964420898852	2
0	32084	0.964490898852	3
0	32091	0.965036898852	2
0	32135	0.965682905524	3
0	32141	0.965900905524	2
0	32165	0.966686912196	3
0	32171	0.966904912196	2
0	32202	0.967830918868	3
0	32207	0.968048918868	2
0	32217	0.968638918868	3
0	32222	0.969184918868	2
0	32267	0.96985092554	3
0	32272	0.97006892554	2
0	32298	0.970714932212	3
0	32303	0.970932932212	2
0	32333	0.971958938884	3
0	32338	0.972176938884	2
0	32347	0.972446938884	3
0	32353	0.972992938884	2
0	32398	0.973618945556	3
0	32403	0.973836945556	2
0	32429	0.974482952228	3
0	32434	0.974700952228	2
0	32465	0.9756869589	3
0	32471	0.9759049589	2
0	32479	0.9764949589	3
0	32486	0.9770409589	2
0	32530	0.977986965572	3
0	32536	0.978204965572	2
0	32560	0.978950972244	3
0	32565	0.979168972244	2
0	32596	0.979854978916	3
0	32602	0.980072978916	2
0	32610	0.980242978916	3
0	32616	0.980788978916	2
0	32660	0.981474985588	3
0	32665	0.981692985588	2
0	32691	0.98233899226	3
0	32696	0.98255699226	2
0	32726	0.983282998932	3
0	32731	0.983500998932	2
0	32740	0.983650998932	3
0	32746	0.984196998932	2
0	32791	0.985103005604	3
0	32796	0.985321005604	2
0	32822	0.986027012276	3
0	32827	0.986245012276	2
0	32856	0.986991018948	3
0	32862	0.987209018948	2
0	32870	0.987779018948	3
0	32877	0.988325018948	2
0	32921	0.98897102562	3
0	32927	0.98918902562	2
0	32952	0.989895032292	3
0	32958	0.990113032292	2
0	32988	0.990799038964	3
0	32993	0.991017038964	2
0	33001	0.991347038964	3
0	33008	0.991893038964	2
0	33053	0.992719045636	3
0	33058	0.992937045636	2
0	33084	0.993563052308	3
0	33089	0.993781052308	2
0	33119	0.99450705898	3
0	33124	0.99472505898	2
0	33132	0.99487505898	3
0	33139	0.99542105898	2
0	33183	0.996207065652	3
0	33189	0.996425065652	2
0	33214	0.997151072324	3
0	33220	0.997369072324	2
0	33249	0.998195078996	3
0	33255	0.998413078996	2
0	33263	0.998763078996	3
0	33270	0.999309078996	2
0	33314	0.999935085668	3
1	0	0	0
1	0	0	0
1	0	0	2
1	78	0.001870010008	3
1	83	0.002416010008	2
1	202	0.005998030024	3
1	207	0.006544030024	2
1	326	0.00988605004	3
1	331	0.01043205004	2
1	457	0.014154070056	3
1	462	0.014700070056	2
1	557	0.0171180834	3
1	563	0.0176640834	2
1	747	0.02255411676	3
1	753	0.02310011676	2
1	878	0.026382136776	3
1	884	0.026928136776	2
1	947	0.027822143448	3
1	953	0.028368143448	2
1	1080	0.032190163464	3
1	1086	0.032736163464	2
1	1241	0.036862190152	3
1	1248	0.037408190152	2
1	1374	0.040910210168	3
1	1379	0.041456210168	2
1	1533	0.045442236856	3
1	1539	0.045988236856	2
1	1664	0.049430256872	3
1	1670	0.049976256872	2
1	1795	0.053038276888	3
1	1801	0.053584276888	2
1	1897	0.056082290232	3
1	1903	0.056628290232	2
1	2058	0.06115431692	3
1	2064	0.06170031692	2
1	2128	0.062774323592	3
1	2134	0.063320323592	2
1	2319	0.068570356952	3
1	2325	0.069116356952	2
1	2449	0.071918376968	3
1	2455	0.072464376968	2
1	2520	0.07409838364	3
1	2531	0.07464438364	2
1	2605	0.077002401701	3
1	2612	0.077548401701	2
1	2677	0.079182408373	3
1	2683	0.079728408373	2
1	2839	0.084414435061	3
1	2850	0.084960435061	2
1	2896	0.087114441733	3
1	2902	0.087660441733	2
1	2996	0.089838455077	3
1	3002	0.090384455077	2
1	3156	0.094650481765	3
1	3162	0.095196481765	2
1	3286	0.098678501781	3
1	3291	0.099224501781	2
1	3356	0.100478508453	3
1	3367	0.101024508453	2
1	3411	0.102318521796	3
1	3417	0.102864521796	2
1	3542	0.105866541812	3
1	3547	0.106412541812	2
1	3702	0.1107585685	3
1	3708	0.1113045685	2
1	3803	0.113662581844	3
1	3810	0.114208581844	2
1	3936	0.11781060186	3
1	3941	0.11835660186	2
1	4065	0.121198621876	3
1	4072	0.121744621876	2
1	4226	0.126110648564	3
1	4232	0.126656648564	2
1	4327	0.128634661908	3
1	4332	0.129180661908	2
1	4488	0.133486688596	3
1	4494	0.134032688596	2
1	4589	0.13629070194	3
1	4595	0.13683670194	2
1	4750	0.140962728628	3
1	4756	0.141508728628	2
1	4851	0.143806741972	3
1	4858	0.144352741972	2
1	4951	0.146450755316	3
1	4957	0.146996755316	2
1	5143	0.152086788676	3
1	5149	0.152632788676	2
1	5245	0.15539080202	3
1	5251	0.15593680202	2
1	5377	0.158978822036	3
1	5387	0.159524822036	2
1	5433	0.161678828708	3
1	5439	0.162224828708	2
1	5563	0.165546848724	3
1	5569	0.166092848724	2
1	5695	0.16963486874	3
1	5700	0.17018086874	2
1	5764	0.171274875412	3
1	5769	0.171820875412	2
1	5893	0.174902895428	3
1	5900	0.175448895428	2
1	6047	0.179746922115	3
1	6055	0.180292922115	2
1	6182	0.184294942131	3
1	6188	0.184840942131	2
1	6343	0.188846968819	3
1	6348	0.189392968819	2
1	6472	0.192614988835	3
1	6479	0.193160988835	2
1	6572	0.195439002179	3
1	6579	0.195985002179	2
1	6764	0.201115035539	3
1	6770	0.201661035539	2
1	6895	0.204763055555	3
1	6900	0.205309055555	2
1	6997	0.208187068899	3
1	7003	0.208733068899	2
1	7127	0.211615088915	3
1	7134	0.212161088915	2
1	7288	0.216227115603	3
1	7294	0.216773115603	2
1	7389	0.219091128947	3
1	7395	0.219637128947	2
1	7489	0.222075142291	3
1	7496	0.222621142291	2
1	7622	0.226163162307	3
1	7632	0.226709162307	2
1	7677	0.228263173696	3
1	7683	0.228809173696	2
1	7778	0.23104718704	3
1	7783	0.23159318704	2
1	7968	0.2370632204	3
1	7974	0.2376092204	2
1	8068	0.239687233744	3
1	8075	0.240233233744	2
1	8229	0.244379260432	3
1	8234	0.244925260432	2
1	8299	0.246199267104	3
1	8306	0.246745267104	2
1	8461	0.250611293792	3
1	8472	0.251157293792	2
1	8487	0.251987293792	3
1	8493	0.252533293792	2
1	8618	0.255675313808	3
1	8624	0.256221313808	2
1	8780	0.260667340496	3
1	8786	0.261213340496	2
1	8910	0.264735360512	3
1	8915	0.265281360512	2
1	8981	0.266535367184	3
1	8991	0.267081367184	2
1	9038	0.269215380527	3
1	9050	0.269761380527	2
1	9066	0.271111380527	3
1	9073	0.271657380527	2
1	9197	0.275039400543	3
1	9209	0.275585400543	2
1	9253	0.277859407215	3
1	9260	0.278405407215	2
1	9323	0.279779413887	3
1	9328	0.280325413887	2
1	9511	0.285475447247	3
1	9517	0.286021447247	2
1	9612	0.288759460591	3
1	9617	0.289305460591	2
1	9772	0.293751487279	3
1	9779	0.294297487279	2
1	9843	0.295611493951	3
1	9849	0.296157493951	2
1	10033	0.301547527311	3
1	10039	0.302093527311	2
1	10165	0.305555547327	3
1	10170	0.306101547327	2
1	10235	0.307315553999	3
1	10241	0.307861553999	2
1	10366	0.311303574015	3
1	10372	0.311849574015	2
1	10496	0.315051594031	3
1	10508	0.315597594031	2
1	10585	0.318815614046	3
1	10592	0.319361614046	2
1	10656	0.320715620718	3
1	10662	0.321261620718	2
1	10817	0.325167647406	3
1	10823	0.325713647406	2
1	10915	0.32817166075	3
1	10922	0.32871766075	2
1	11077	0.333123687438	3
1	11084	0.333669687438	2
1	11179	0.336107700782	3
1	11184	0.336653700782	2
1	11309	0.339835720798	3
1	11315	0.340381720798	2
1	11439	0.343523740814	3
1	11446	0.344069740814	2
1	11570	0.34739176083	3
1	11576	0.34793776083	2
1	11701	0.351079780846	3
1	11708	0.351625780846	2
1	11894	0.357255814206	3
1	11899	0.357801814206	2
1	11965	0.359275820878	3
1	11975	0.359821820878	2
1	12022	0.361475832267	3
1	12029	0.362021832267	2
1	12183	0.366767858955	3
1	12190	0.367313858955	2
1	12284	0.369411872299	3
1	12290	0.369957872299	2
1	12415	0.373599892315	3
1	12420	0.374145892315	2
1	12544	0.376927912331	3
1	12550	0.377473912331	2
1	12645	0.379991925675	3
1	12651	0.380537925675	2
1	12806	0.384783952363	3
1	12813	0.385329952363	2
1	12939	0.388691972379	3
1	12944	0.389237972379	2
1	13098	0.393423999067	3
1	13104	0.393969999067	2
1	13199	0.396328012411	3
1	13206	0.396874012411	2
1	13361	0.401380039099	3
1	13366	0.401926039099	2
1	13463	0.404464052443	3
1	13468	0.405010052443	2
1	13563	0.407628065787	3
1	13570	0.408174065787	2
1	13754	0.413584099147	3
1	13760	0.414130099147	2
1	13825	0.415364105819	3
1	13830	0.415910105819	2
1	13985	0.419776132507	3
1	13991	0.420322132507	2
1	14146	0.424528159195	3
1	14151	0.425074159195	2
1	14247	0.427652172539	3
1	14254	0.428198172539	2
1	14348	0.430536185883	3
1	14354	0.431082185883	2
1	14540	0.436452219243	3
1	14545	0.436998219243	2
1	14671	0.440480239259	3
1	14676	0.441026239259	2
1	14801	0.444108259275	3
1	14807	0.444654259275	2
1	14932	0.447976279291	3
1	14938	0.448522279291	2
1	15029	0.450752292634	3
1	15036	0.451298292634	2
1	15221	0.456888325994	3
1	15227	0.457434325994	2
1	15352	0.46081634601	3
1	15358	0.46136234601	2
1	15452	0.463460359354	3
1	15459	0.464006359354	2
1	15554	0.466524372698	3
1	15559	0.467070372698	2
1	15685	0.470592392714	3
1	15690	0.471138392714	2
1	15847	0.475264419402	3
1	15852	0.475810419402	2
1	15946	0.478248432746	3
1	15952	0.478794432746	2
1	16107	0.482960459434	3
1	16114	0.483506459434	2
1	16207	0.485404472778	3
1	16213	0.485950472778	2
1	16338	0.489172492794	3
1	16349	0.489718492794	2
1	16396	0.491192504183	3
1	16402	0.491738504183	2
1	16496	0.494296517527	3
1	16503	0.494842517527	2
1	16658	0.498968544215	3
1	16664	0.499514544215	2
1	16788	0.502796564231	3
1	16795	0.503342564231	2
1	16920	0.506964584247	3
1	16926	0.507510584247	2
1	17080	0.511616610935	3
1	17086	0.512162610935	2
1	17173	0.514252624278	3
1	17182	0.514798624278	2
1	17306	0.518400644294	3
1	17313	0.518946644294	2
1	17498	0.524456677654	3
1	17504	0.525002677654	2
1	17593	0.527432690997	3
1	17599	0.527978690997	2
1	17783	0.534340717685	3
1	17788	0.534886717685	2
1	17942	0.539352744373	3
1	17947	0.539898744373	2
1	18011	0.540892751045	3
1	18021	0.541438751045	2
1	18068	0.543272762434	3
1	18074	0.543818762434	2
1	18229	0.548644789122	3
1	18236	0.549190789122	2
1	18361	0.552652809138	3
1	18366	0.553198809138	2
1	18490	0.556680829154	3
1	18497	0.557226829154	2
1	18592	0.560084842498	3
1	18598	0.560630842498	2
1	18723	0.564252862514	3
1	18729	0.564798862514	2
1	18854	0.56844088253	3
1	18860	0.56898688253	2
1	18955	0.571504895874	3
1	18961	0.572050895874	2
1	19085	0.57539291589	3
1	19092	0.57593891589	2
1	19216	0.579260935906	3
1	19221	0.579806935906	2
1	19347	0.583308955922	3
1	19353	0.583854955922	2
1	19538	0.589784989282	3
1	19545	0.590330989282	2
1	19640	0.592689002626	3
1	19645	0.593235002626	2
1	19800	0.597921029314	3
1	19806	0.598467029314	2
1	19902	0.601125042658	3
1	19908	0.601671042658	2
1	20033	0.605073062674	3
1	20038	0.605619062674	2
1	20133	0.607877076018	3
1	20138	0.608423076018	2
1	20324	0.614133109378	3
1	20329	0.614679109378	2
1	20426	0.616977122722	3
1	20431	0.617523122722	2
1	20524	0.619381136066	3
1	20531	0.619927136066	2
1	20716	0.625137169426	3
1	20722	0.625683169426	2
1	20847	0.628845189442	3
1	20853	0.629391189442	2
1	20917	0.630665196114	3
1	20923	0.631211196114	2
1	21079	0.635257222802	3
1	21085	0.635803222802	2
1	21240	0.64016924949	3
1	21246	0.64071524949	2
1	21371	0.643837269506	3
1	21377	0.644383269506	2
1	21473	0.64698128285	3
1	21479	0.64752728285	2
1	21603	0.650569302866	3
1	21610	0.651115302866	2
1	21705	0.65343331621	3
1	21710	0.65397931621	2
1	21892	0.659901342898	3
1	21898	0.660447342898	2
1	22023	0.663489362914	3
1	22029	0.664035362914	2
1	22121	0.666213376258	3
1	22126	0.666759376258	2
1	22252	0.669921396274	3
1	22258	0.670467396274	2
1	22383	0.67380941629	3
1	22390	0.67435541629	2
1	22516	0.677997436306	3
1	22522	0.678543436306	2
1	22674	0.682721462993	3
1	22679	0.683267462993	2
1	22865	0.689297496353	3
1	22872	0.689843496353	2
1	22966	0.692161509697	3
1	22972	0.692707509697	2
1	23066	0.694905523041	3
1	23071	0.695451523041	2
1	23257	0.700741556401	3
1	23262	0.701287556401	2
1	23387	0.704009576417	3
1	23392	0.704555576417	2
1	23456	0.705529583089	3
1	23462	0.706075583089	2
1	23618	0.710321609777	3
1	23624	0.710867609777	2
1	23718	0.712845623121	3
1	23724	0.713391623121	2
1	23881	0.717857649809	3
1	23888	0.718403649809	2
1	24043	0.723249676497	3
1	24050	0.723795676497	2
1	24114	0.725269683169	3
1	24121	0.725815683169	2
1	24245	0.729097703185	3
1	24251	0.729643703185	2
1	24374	0.732465723201	3
1	24380	0.733011723201	2
1	24537	0.737757749889	3
1	24543	0.738303749889	2
1	24698	0.742889776577	3
1	24705	0.743435776577	2
1	24769	0.744689783249	3
1	24774	0.745235783249	2
1	24900	0.748837803265	3
1	24905	0.749383803265	2
1	25091	0.755013836625	3
1	25098	0.755559836625	2
1	25193	0.758137849969	3
1	25203	0.758683849969	2
1	25250	0.761097856641	3
1	25256	0.761643856641	2
1	25381	0.765085876657	3
1	25387	0.765631876657	2
1	25482	0.767849890001	3
1	25487	0.768395890001	2
1	25610	0.771797910017	3
1	25616	0.772343910017	2
1	25770	0.776029936705	3
1	25776	0.776575936705	2
1	25900	0.779417956721	3
1	25906	0.779963956721	2
1	26000	0.782301970065	3
1	26007	0.782847970065	2
1	26133	0.786389990081	3
1	26140	0.786935990081	2
1	26264	0.789778010097	3
1	26271	0.790324010097	2
1	26365	0.792882023441	3
1	26371	0.793428023441	2
1	26528	0.798234050129	3
1	26534	0.798780050129	2
1	26628	0.801098063473	3
1	26635	0.801644063473	2
1	26818	0.806874096833	3
1	26824	0.807420096833	2
1	26888	0.808434103505	3
1	26894	0.808980103505	2
1	27080	0.814070136865	3
1	27085	0.814616136865	2
1	27211	0.818138156881	3
1	27217	0.818684156881	2
1	27314	0.821242170225	3
1	27320	0.821788170225	2
1	27474	0.826354196913	3
1	27480	0.826900196913	2
1	27605	0.829982216929	3
1	27610	0.830528216929	2
1	27675	0.831802223601	3
1	27681	0.832348223601	2
1	27893	0.838674256961	3
1	27898	0.839220256961	2
1	27985	0.841210270304	3
1	27993	0.841756270304	2
1	28149	0.846762296992	3
1	28155	0.847308296992	2
1	28309	0.85137432368	3
1	28315	0.85192032368	2
1	28380	0.852834330352	3
1	28385	0.853380330352	2
1	28540	0.85776635704	3
1	28546	0.85831235704	2
1	28640	0.860770370384	3
1	28647	0.861316370384	2
1	28832	0.866426403744	3
1	28838	0.866972403744	2
1	28933	0.868750417088	3
1	28939	0.869296417088	2
1	29064	0.872658437104	3
1	29069	0.873204437104	2
1	29165	0.875942450448	3
1	29171	0.876488450448	2
1	29345	0.881982477135	3
1	29353	0.882528477135	2
1	29480	0.886830497151	3
1	29491	0.887376497151	2
1	29563	0.889714515212	3
1	29569	0.890260515212	2
1	29693	0.893562535228	3
1	29698	0.894108535228	2
1	29762	0.8952425419	3
1	29769	0.8957885419	2
1	29954	0.90157857526	3
1	29959	0.90212457526	2
1	30025	0.903578581932	3
1	30031	0.904124581932	2
1	30216	0.909594615292	3
1	30221	0.910140615292	2
1	30287	0.911894621964	3
1	30294	0.912440621964	2
1	30418	0.91584264198	3
1	30423	0.91638864198	2
1	30609	0.92147867534	3
1	30614	0.92202467534	2
1	30679	0.923558682012	3
1	30685	0.924104682012	2
1	30809	0.927126702028	3
1	30816	0.927672702028	2
1	30971	0.932018728716	3
1	30978	0.932564728716	2
1	31102	0.935746748732	3
1	31109	0.936292748732	2
1	31235	0.939894768748	3
1	31240	0.940440768748	2
1	31366	0.943802788764	3
1	31371	0.944348788764	2
1	31465	0.946506802108	3
1	31471	0.947052802108	2
1	31626	0.950998828796	3
1	31633	0.951544828796	2
1	31726	0.95418284214	3
1	31733	0.95472884214	2
1	31888	0.958754868828	3
1	31894	0.959300868828	2
1	32049	0.963646895516	3
1	32055	0.964192895516	2
1	32150	0.96613090886	3
1	32155	0.96667690886	2
1	32281	0.970158928876	3
1	32287	0.970704928876	2
1	32412	0.973926948892	3
1	32419	0.974472948892	2
1	32574	0.97929897558	3
1	32580	0.97984497558	2
1	32644	0.980918982252	3
1	32650	0.981464982252	2
1	32775	0.984547002268	3
1	32781	0.985093002268	2
1	32936	0.989339028956	3
1	32942	0.989885028956	2
1	33036	0.9921630423	3
1	33043	0.9927090423	2
1	33198	0.996595068988	3
1	33204	0.997141068988	2
1	33298	0.999379082332	3
1	33304	0.999925082332	2
2	0	0	0
2	0	0	0
2	0	0	2
2	106	0.00299401668	3
2	111	0.00354001668	2
2	230	0.007022036696	3
2	235	0.007568036696	2
2	355	0.011050056712	3
2	361	0.011596056712	2
2	486	0.015058076728	3
2	492	0.015604076728	2
2	588	0.018102090072	3
2	593	0.018648090072	2
2	717	0.021550110088	3
2	724	0.022096110088	2
2	848	0.025518130104	3
2	855	0.026064130104	2
2	1009	0.030030156792	3
2	1015	0.030576156792	2
2	1140	0.033958176808	3
2	1146	0.034504176808	2
2	1272	0.038126196824	3
2	1279	0.038672196824	2
2	1343	0.040006203496	3
2	1348	0.040552203496	2
2	1503	0.044478230184	3
2	1510	0.045024230184	2
2	1634	0.0485262502	3
2	1641	0.0490722502	2
2	1765	0.052154270216	3
2	1772	0.052700270216	2
2	1865	0.05499828356	3
2	1872	0.05554428356	2
2	1997	0.059166303576	3
2	2003	0.059712303576	2
2	2188	0.064882336936	3
2	2194	0.065428336936	2
2	2258	0.066482343608	3
2	2265	0.067028343608	2
2	2389	0.070110363624	3
2	2394	0.070656363624	2
2	2521	0.07409838364	3
2	2532	0.07464438364	2
2	2576	0.075818395029	3
2	2582	0.076364395029	2
2	2738	0.081230421717	3
2	2745	0.081776421717	2
2	2840	0.084414435061	3
2	2851	0.084960435061	2
2	2865	0.085570435061	3
2	2871	0.086116435061	2
2	3026	0.090762461749	3
2	3032	0.091308461749	2
2	3126	0.093526475093	3
2	3133	0.094072475093	2
2	3255	0.097654495109	3
2	3262	0.098200495109	2
2	3378	0.101094515124	3
2	3387	0.101640515124	2
2	3571	0.106810548484	3
2	3577	0.107356548484	2
2	3673	0.109734561828	3
2	3679	0.110280561828	2
2	3833	0.114586588516	3
2	3839	0.115132588516	2
2	3905	0.116706595188	3
2	3910	0.117252595188	2
2	4034	0.120154615204	3
2	4041	0.120700615204	2
2	4166	0.12434263522	3
2	4172	0.12488863522	2
2	4357	0.12977866858	3
2	4363	0.13032466858	2
2	4427	0.131398675252	3
2	4433	0.131944675252	2
2	4558	0.135386695268	3
2	4564	0.135932695268	2
2	4720	0.139998721956	3
2	4726	0.140544721956	2
2	4881	0.144670748644	3
2	4886	0.145216748644	2
2	4982	0.147354761988	3
2	4988	0.147900761988	2
2	5113	0.151062782004	3
2	5119	0.151608782004	2
2	5275	0.156234808692	3
2	5280	0.156780808692	2
2	5345	0.158034815364	3
2	5351	0.158580815364	2
2	5533	0.164542842052	3
2	5539	0.165088842052	2
2	5635	0.167746855396	3
2	5640	0.168292855396	2
2	5793	0.172198882084	3
2	5800	0.172744882084	2
2	5954	0.176930908772	3
2	5960	0.177476908772	2
2	6024	0.178950915444	3
2	6035	0.179496915444	2
2	6111	0.182334935459	3
2	6117	0.182880935459	2
2	6242	0.186142955475	3
2	6248	0.186688955475	2
2	6313	0.187822962147	3
2	6318	0.188368962147	2
2	6442	0.191510982163	3
2	6448	0.192056982163	2
2	6603	0.196623008851	3
2	6610	0.197169008851	2
2	6734	0.200271028867	3
2	6741	0.200817028867	2
2	6865	0.203919048883	3
2	6871	0.204465048883	2
2	7027	0.209051075571	3
2	7032	0.209597075571	2
2	7096	0.210731082243	3
2	7103	0.211277082243	2
2	7259	0.215343108931	3
2	7265	0.215889108931	2
2	7419	0.220015135619	3
2	7424	0.220561135619	2
2	7520	0.222959148963	3
2	7527	0.223505148963	2
2	7623	0.226163162307	3
2	7633	0.226709162307	2
2	7707	0.229427180368	3
2	7714	0.229973180368	2
2	7838	0.233055200384	3
2	7844	0.233601200384	2
2	7909	0.235075207056	3
2	7914	0.235621207056	2
2	8037	0.238543227072	3
2	8044	0.239089227072	2
2	8168	0.242251247088	3
2	8174	0.242797247088	2
2	8360	0.248167280448	3
2	8366	0.248713280448	2
2	8462	0.250611293792	3
2	8473	0.251157293792	2
2	8517	0.253011300464	3
2	8523	0.253557300464	2
2	8587	0.254771307136	3
2	8594	0.255317307136	2
2	8750	0.259643333824	3
2	8756	0.260189333824	2
2	8850	0.262767347168	3
2	8855	0.263313347168	2
2	9006	0.267511373855	3
2	9013	0.268057373855	2
2	9166	0.273775393871	3
2	9172	0.274321393871	2
2	9381	0.281667427231	3
2	9387	0.282213427231	2
2	9451	0.283367433903	3
2	9457	0.283913433903	2
2	9581	0.287795453919	3
2	9586	0.288341453919	2
2	9743	0.292767480607	3
2	9749	0.293313480607	2
2	9903	0.297679507295	3
2	9908	0.298225507295	2
2	10005	0.300643520639	3
2	10010	0.301189520639	2
2	10136	0.304671540655	3
2	10141	0.305217540655	2
2	10267	0.308479560671	3
2	10272	0.309025560671	2
2	10398	0.312367580687	3
2	10403	0.312913580687	2
2	10523	0.315967600702	3
2	10530	0.316513600702	2
2	10716	0.322783634062	3
2	10723	0.323329634062	2
2	10787	0.324323640734	3
2	10793	0.324869640734	2
2	10946	0.329075667422	3
2	10953	0.329621667422	2
2	11046	0.332099680766	3
2	11053	0.332645680766	2
2	11239	0.338275714126	3
2	11245	0.338821714126	2
2	11369	0.341923734142	3
2	11375	0.342469734142	2
2	11500	0.345291754158	3
2	11505	0.345837754158	2
2	11601	0.348235767502	3
2	11606	0.348781767502	2
2	11762	0.35310779419	3
2	11768	0.35365379419	2
2	11865	0.356371807534	3
2	11870	0.356917807534	2
2	11966	0.359275820878	3
2	11976	0.359821820878	2
2	12052	0.362719838939	3
2	12059	0.363265838939	2
2	12123	0.364959845611	3
2	12129	0.365505845611	2
2	12254	0.368487865627	3
2	12259	0.369033865627	2
2	12384	0.372595885643	3
2	12389	0.373141885643	2
2	12574	0.377911919003	3
2	12580	0.378457919003	2
2	12676	0.380995932347	3
2	12682	0.381541932347	2
2	12837	0.386007959035	3
2	12843	0.386553959035	2
2	12967	0.389835979051	3
2	12973	0.390381979051	2
2	13037	0.391435985723	3
2	13044	0.391981985723	2
2	13169	0.395384005739	3
2	13175	0.395930005739	2
2	13330	0.400036032427	3
2	13336	0.400582032427	2
2	13432	0.403580045771	3
2	13438	0.404126045771	2
2	13594	0.408712072459	3
2	13600	0.409258072459	2
2	13694	0.411476085803	3
2	13700	0.412022085803	2
2	13855	0.416208112491	3
2	13861	0.416754112491	2
2	13954	0.418752125835	3
2	13960	0.419298125835	2
2	14116	0.423624152523	3
2	14122	0.424170152523	2
2	14216	0.426608165867	3
2	14223	0.427154165867	2
2	14409	0.432284199227	3
2	14415	0.432830199227	2
2	14479	0.434344205899	3
2	14485	0.434890205899	2
2	14642	0.439556232587	3
2	14647	0.440102232587	2
2	14773	0.443184252603	3
2	14778	0.443730252603	2
2	14903	0.447112272619	3
2	14909	0.447658272619	2
2	15002	0.449716285963	3
2	15013	0.450262285963	2
2	15091	0.453220305978	3
2	15097	0.453766305978	2
2	15161	0.45468031265	3
2	15167	0.45522631265	2
2	15292	0.458668332666	3
2	15298	0.459214332666	2
2	15421	0.462516352682	3
2	15428	0.463062352682	2
2	15613	0.468412386042	3
2	15619	0.468958386042	2
2	15716	0.471596399386	3
2	15721	0.472142399386	2
2	15816	0.47440041273	3
2	15821	0.47494641273	2
2	16006	0.48015644609	3
2	16012	0.48070244609	2
2	16076	0.482096452762	3
2	16083	0.482642452762	2
2	16268	0.487512486122	3
2	16274	0.488058486122	2
2	16339	0.489172492794	3
2	16350	0.489718492794	2
2	16425	0.492436510855	3
2	16432	0.492982510855	2
2	16527	0.495240524199	3
2	16533	0.495786524199	2
2	16688	0.500092550887	3
2	16693	0.500638550887	2
[...]
45	11240	0.338275714126	2
45	11245	0.338821714126	1
45	11245	0.338821714126	0
45	11369	0.341923734142	1
45	11370	0.341923734142	2
45	11375	0.342469734142	1
45	11375	0.342469734142	0
45	11500	0.345291754158	1
45	11501	0.345291754158	2
45	11505	0.345837754158	1
45	11505	0.345837754158	0
45	11601	0.348235767502	1
45	11602	0.348235767502	2
45	11606	0.348781767502	1
45	11606	0.348781767502	0
45	11762	0.35310779419	1
45	11763	0.35310779419	2
45	11768	0.35365379419	1
45	11768	0.35365379419	0
45	11865	0.356371807534	1
45	11866	0.356371807534	2
45	11870	0.356917807534	1
45	11870	0.356917807534	0
45	11966	0.359275820878	1
45	11968	0.359275820878	2
45	11976	0.359821820878	1
45	11976	0.359821820878	0
45	12052	0.362719838939	1
45	12053	0.362719838939	2
45	12059	0.363265838939	1
45	12059	0.363265838939	0
45	12123	0.364959845611	1
45	12124	0.364959845611	2
45	12129	0.365505845611	1
45	12129	0.365505845611	0
45	12254	0.368487865627	1
45	12255	0.368487865627	2
45	12259	0.369033865627	1
45	12259	0.369033865627	0
45	12384	0.372595885643	1
45	12385	0.372595885643	2
45	12389	0.373141885643	1
45	12389	0.373141885643	0
45	12574	0.377911919003	1
45	12575	0.377911919003	2
45	12580	0.378457919003	1
45	12580	0.378457919003	0
45	12676	0.380995932347	1
45	12677	0.380995932347	2
45	12682	0.381541932347	1
45	12682	0.381541932347	0
45	12837	0.386007959035	1
45	12838	0.386007959035	2
45	12843	0.386553959035	1
45	12843	0.386553959035	0
45	12967	0.389835979051	1
45	12968	0.389835979051	2
45	12973	0.390381979051	1
45	12973	0.390381979051	0
45	13037	0.391435985723	1
45	13038	0.391435985723	2
45	13044	0.391981985723	1
45	13044	0.391981985723	0
45	13169	0.395384005739	1
45	13170	0.395384005739	2
45	13175	0.395930005739	1
45	13175	0.395930005739	0
45	13330	0.400036032427	1
45	13331	0.400036032427	2
45	13336	0.400582032427	1
45	13336	0.400582032427	0
45	13432	0.403580045771	1
45	13433	0.403580045771	2
45	13438	0.404126045771	1
45	13438	0.404126045771	0
45	13594	0.408712072459	1
45	13595	0.408712072459	2
45	13600	0.409258072459	1
45	13600	0.409258072459	0
45	13694	0.411476085803	1
45	13695	0.411476085803	2
45	13700	0.412022085803	1
45	13700	0.412022085803	0
45	13855	0.416208112491	1
45	13856	0.416208112491	2
45	13861	0.416754112491	1
45	13861	0.416754112491	0
45	13954	0.418752125835	1
45	13955	0.418752125835	2
45	13960	0.419298125835	1
45	13960	0.419298125835	0
45	14116	0.423624152523	1
45	14117	0.423624152523	2
45	14122	0.424170152523	1
45	14122	0.424170152523	0
45	14216	0.426608165867	1
45	14217	0.426608165867	2
45	14223	0.427154165867	1
45	14223	0.427154165867	0
45	14409	0.432284199227	1
45	14410	0.432284199227	2
45	14415	0.432830199227	1
45	14415	0.432830199227	0
45	14479	0.434344205899	1
45	14480	0.434344205899	2
45	14485	0.434890205899	1
45	14485	0.434890205899	0
45	14642	0.439556232587	1
45	14643	0.439556232587	2
45	14647	0.440102232587	1
45	14647	0.440102232587	0
45	14773	0.443184252603	1
45	14774	0.443184252603	2
45	14778	0.443730252603	1
45	14778	0.443730252603	0
45	14903	0.447112272619	1
45	14904	0.447112272619	2
45	14909	0.447658272619	1
45	14909	0.447658272619	0
45	15002	0.449716285963	1
45	15004	0.449716285963	2
45	15013	0.450262285963	1
45	15013	0.450262285963	0
45	15091	0.453220305978	1
45	15092	0.453220305978	2
45	15097	0.453766305978	1
45	15097	0.453766305978	0
45	15161	0.45468031265	1
45	15162	0.45468031265	2
45	15167	0.45522631265	1
45	15167	0.45522631265	0
45	15292	0.458668332666	1
45	15293	0.458668332666	2
45	15298	0.459214332666	1
45	15298	0.459214332666	0
45	15421	0.462516352682	1
45	15422	0.462516352682	2
45	15428	0.463062352682	1
45	15428	0.463062352682	0
45	15613	0.468412386042	1
45	15614	0.468412386042	2
45	15619	0.468958386042	1
45	15619	0.468958386042	0
45	15716	0.471596399386	1
45	15717	0.471596399386	2
45	15721	0.472142399386	1
45	15721	0.472142399386	0
45	15816	0.47440041273	1
45	15817	0.47440041273	2
45	15821	0.47494641273	1
45	15821	0.47494641273	0
45	16006	0.48015644609	1
45	16007	0.48015644609	2
45	16012	0.48070244609	1
45	16012	0.48070244609	0
45	16076	0.482096452762	1
45	16077	0.482096452762	2
45	16083	0.482642452762	1
45	16083	0.482642452762	0
45	16268	0.487512486122	1
45	16269	0.487512486122	2
45	16274	0.488058486122	1
45	16274	0.488058486122	0
45	16339	0.489172492794	1
45	16341	0.489172492794	2
45	16350	0.489718492794	1
45	16350	0.489718492794	0
45	16425	0.492436510855	1
45	16426	0.492436510855	2
45	16432	0.492982510855	1
45	16432	0.492982510855	0
45	16527	0.495240524199	1
45	16528	0.495240524199	2
45	16533	0.495786524199	1
45	16533	0.495786524199	0
45	16688	0.500092550887	1
45	16689	0.500092550887	2
45	16693	0.500638550887	1
45	16693	0.500638550887	0
45	16818	0.504000570903	1
45	16819	0.504000570903	2
45	16824	0.504546570903	1
45	16824	0.504546570903	0
45	16950	0.507908590919	1
45	16951	0.507908590919	2
45	16956	0.508454590919	1
45	16956	0.508454590919	0
45	17020	0.509728597591	1
45	17021	0.509728597591	2
45	17026	0.510274597591	1
45	17026	0.510274597591	0
45	17152	0.513636617607	1
45	17154	0.513636617607	2
45	17162	0.514182617607	1
45	17162	0.514182617607	0
45	17237	0.516740637622	1
45	17238	0.516740637622	2
45	17242	0.517286637622	1
45	17242	0.517286637622	0
45	17367	0.520448657638	1
45	17368	0.520448657638	2
45	17373	0.520994657638	1
45	17373	0.520994657638	0
45	17438	0.52230866431	1
45	17439	0.52230866431	2
45	17444	0.52285466431	1
45	17444	0.52285466431	0
45	17569	0.526576684326	1
45	17571	0.526576684326	2
45	17579	0.527122684326	1
45	17579	0.527122684326	0
45	17624	0.528356697669	1
45	17626	0.528356697669	2
45	17634	0.528902697669	1
45	17634	0.528902697669	0
45	17650	0.529392697669	1
45	17651	0.529392697669	2
45	17655	0.529938697669	1
45	17655	0.529938697669	0
45	17752	0.533256711013	1
45	17753	0.533256711013	2
45	17757	0.533802711013	1
45	17757	0.533802711013	0
45	17882	0.537324731029	1
45	17883	0.537324731029	2
45	17887	0.537870731029	1
45	17887	0.537870731029	0
45	18012	0.540892751045	1
45	18014	0.540892751045	2
45	18022	0.541438751045	1
45	18022	0.541438751045	0
45	18098	0.544696769106	1
45	18099	0.544696769106	2
45	18105	0.545242769106	1
45	18105	0.545242769106	0
45	18199	0.54736078245	1
45	18200	0.54736078245	2
45	18205	0.54790678245	1
45	18205	0.54790678245	0
45	18331	0.551748802466	1
45	18332	0.551748802466	2
45	18336	0.552294802466	1
45	18336	0.552294802466	0
45	18461	0.555656822482	1
45	18462	0.555656822482	2
45	18466	0.556202822482	1
45	18466	0.556202822482	0
45	18621	0.56094884917	1
45	18622	0.56094884917	2
45	18627	0.56149484917	1
45	18627	0.56149484917	0
45	18692	0.563088855842	1
45	18693	0.563088855842	2
45	18699	0.563634855842	1
45	18699	0.563634855842	0
45	18824	0.567296875858	1
45	18825	0.567296875858	2
45	18830	0.567842875858	1
45	18830	0.567842875858	0
45	18985	0.572368902546	1
45	18986	0.572368902546	2
45	18991	0.572914902546	1
45	18991	0.572914902546	0
45	19145	0.577460929234	1
45	19146	0.577460929234	2
45	19151	0.578006929234	1
45	19151	0.578006929234	0
45	19247	0.580324942578	1
45	19248	0.580324942578	2
45	19252	0.580870942578	1
45	19252	0.580870942578	0
45	19407	0.585556969266	1
45	19408	0.585556969266	2
45	19413	0.586102969266	1
45	19413	0.586102969266	0
45	19478	0.587696975938	1
45	19479	0.587696975938	2
45	19485	0.588242975938	1
45	19485	0.588242975938	0
45	19669	0.593693009298	1
45	19670	0.593693009298	2
45	19676	0.594239009298	1
45	19676	0.594239009298	0
45	19740	0.59605301597	1
45	19741	0.59605301597	2
45	19747	0.59659901597	1
45	19747	0.59659901597	0
45	19871	0.600001035986	1
45	19872	0.600001035986	2
45	19877	0.600547035986	1
45	19877	0.600547035986	0
45	20002	0.604209056002	1
45	20003	0.604209056002	2
45	20009	0.604755056002	1
45	20009	0.604755056002	0
45	20164	0.60888108269	1
45	20165	0.60888108269	2
45	20169	0.60942708269	1
45	20169	0.60942708269	0
45	20264	0.612125096034	1
45	20265	0.612125096034	2
45	20270	0.612671096034	1
45	20270	0.612671096034	0
45	20455	0.617841129394	1
45	20456	0.617841129394	2
45	20460	0.618387129394	1
45	20460	0.618387129394	0
45	20585	0.62158914941	1
45	20586	0.62158914941	2
45	20591	0.62213514941	1
45	20591	0.62213514941	0
45	20655	0.623309156082	1
45	20656	0.623309156082	2
45	20661	0.623855156082	1
45	20661	0.623855156082	0
45	20817	0.62784118277	1
45	20818	0.62784118277	2
45	20823	0.62838718277	1
45	20823	0.62838718277	0
45	20948	0.631569202786	1
45	20949	0.631569202786	2
45	20953	0.632115202786	1
45	20953	0.632115202786	0
45	21048	0.63431321613	1
45	21049	0.63431321613	2
45	21054	0.63485921613	1
45	21054	0.63485921613	0
45	21179	0.638201236146	1
45	21180	0.638201236146	2
45	21186	0.638747236146	1
45	21186	0.638747236146	0
45	21310	0.641669256162	1
45	21311	0.641669256162	2
45	21316	0.642215256162	1
45	21316	0.642215256162	0
45	21502	0.647825289522	1
45	21503	0.647825289522	2
45	21508	0.648371289522	1
45	21508	0.648371289522	0
45	21572	0.649725296194	1
45	21573	0.649725296194	2
45	21579	0.650271296194	1
45	21579	0.650271296194	0
45	21735	0.654457322882	1
45	21737	0.654457322882	2
45	21746	0.655003322882	1
45	21746	0.655003322882	0
45	21791	0.657317329554	1
45	21792	0.657317329554	2
45	21798	0.657863329554	1
45	21798	0.657863329554	0
45	21862	0.658817336226	1
45	21863	0.658817336226	2
45	21867	0.659363336226	1
45	21867	0.659363336226	0
45	22053	0.664613369586	1
45	22054	0.664613369586	2
45	22059	0.665159369586	1
45	22059	0.665159369586	0
45	22151	0.66707738293	1
45	22152	0.66707738293	2
45	22157	0.66762338293	1
45	22157	0.66762338293	0
45	22313	0.671789409618	1
45	22314	0.671789409618	2
45	22318	0.672335409618	1
45	22318	0.672335409618	0
45	22444	0.675877429634	1
45	22445	0.675877429634	2
45	22450	0.676423429634	1
45	22450	0.676423429634	0
45	22576	0.68006544965	1
45	22577	0.68006544965	2
45	22582	0.68061144965	1
45	22582	0.68061144965	0
45	22647	0.681685456322	1
45	22649	0.681685456322	2
45	22657	0.682231456322	1
45	22657	0.682231456322	0
45	22703	0.683665469665	1
45	22704	0.683665469665	2
45	22709	0.684211469665	1
45	22709	0.684211469665	0
45	22805	0.687229483009	1
45	22806	0.687229483009	2
45	22810	0.687775483009	1
45	22810	0.687775483009	0
45	22995	0.693005516369	1
45	22996	0.693005516369	2
45	23002	0.693551516369	1
45	23002	0.693551516369	0
45	23125	0.696993536385	1
45	23126	0.696993536385	2
45	23131	0.697539536385	1
45	23131	0.697539536385	0
45	23226	0.699677549729	1
45	23227	0.699677549729	2
45	23233	0.700223549729	1
45	23233	0.700223549729	0
45	23326	0.702161563073	1
45	23327	0.702161563073	2
45	23332	0.702707563073	1
45	23332	0.702707563073	0
45	23516	0.707357596433	1
45	23517	0.707357596433	2
45	23523	0.707903596433	1
45	23523	0.707903596433	0
45	23588	0.709337603105	1
45	23589	0.709337603105	2
45	23593	0.709883603105	1
45	23593	0.709883603105	0
45	23780	0.714793636465	1
45	23781	0.714793636465	2
45	23785	0.715339636465	1
45	23785	0.715339636465	0
45	23850	0.716813643137	1
45	23851	0.716813643137	2
45	23857	0.717359643137	1
45	23857	0.717359643137	0
45	23982	0.721021663153	1
45	23983	0.721021663153	2
45	23988	0.721567663153	1
45	23988	0.721567663153	0
45	24174	0.727177696513	1
45	24175	0.727177696513	2
45	24181	0.727723696513	1
45	24181	0.727723696513	0
45	24304	0.730905716529	1
45	24305	0.730905716529	2
45	24310	0.731451716529	1
45	24310	0.731451716529	0
45	24405	0.733649729873	1
45	24406	0.733649729873	2
45	24412	0.734195729873	1
45	24412	0.734195729873	0
45	24566	0.738941756561	1
45	24567	0.738941756561	2
45	24572	0.739487756561	1
45	24572	0.739487756561	0
45	24637	0.740701763233	1
45	24638	0.740701763233	2
45	24643	0.741247763233	1
45	24643	0.741247763233	0
45	24829	0.746857796593	1
45	24830	0.746857796593	2
45	24835	0.747403796593	1
45	24835	0.747403796593	0
45	24960	0.751045816609	1
45	24961	0.751045816609	2
45	24967	0.751591816609	1
45	24967	0.751591816609	0
45	25031	0.753085823281	1
45	25032	0.753085823281	2
45	25037	0.753631823281	1
45	25037	0.753631823281	0
45	25162	0.756993843297	1
45	25163	0.756993843297	2
45	25168	0.757539843297	1
45	25168	0.757539843297	0
45	25320	0.763077863313	1
45	25321	0.763077863313	2
45	25325	0.763623863313	1
45	25325	0.763623863313	0
45	25451	0.766925883329	1
45	25452	0.766925883329	2
45	25456	0.767471883329	1
45	25456	0.767471883329	0
45	25579	0.770553903345	1
45	25580	0.770553903345	2
45	25585	0.771099903345	1
45	25585	0.771099903345	0
45	25740	0.775125930033	1
45	25741	0.775125930033	2
45	25746	0.775671930033	1
45	25746	0.775671930033	0
45	25840	0.777729943377	1
45	25841	0.777729943377	2
45	25845	0.778275943377	1
45	25845	0.778275943377	0
45	25971	0.781417963393	1
45	25972	0.781417963393	2
45	25976	0.781963963393	1
45	25976	0.781963963393	0
45	26102	0.785545983409	1
45	26103	0.785545983409	2
45	26109	0.786091983409	1
45	26109	0.786091983409	0
45	26294	0.790802016769	1
45	26295	0.790802016769	2
45	26300	0.791348016769	1
45	26300	0.791348016769	0
45	26425	0.795030036785	1
45	26426	0.795030036785	2
45	26431	0.795576036785	1
45	26431	0.795576036785	0
45	26557	0.799138056801	1
45	26558	0.799138056801	2
45	26564	0.799684056801	1
45	26564	0.799684056801	0
45	26688	0.802986076817	1
45	26689	0.802986076817	2
45	26694	0.803532076817	1
45	26694	0.803532076817	0
45	26759	0.804706083489	1
45	26760	0.804706083489	2
45	26764	0.805252083489	1
45	26764	0.805252083489	0
45	26949	0.810382116849	1
45	26950	0.810382116849	2
45	26954	0.810928116849	1
45	26954	0.810928116849	0
45	27050	0.812926130193	1
45	27051	0.812926130193	2
45	27055	0.813472130193	1
45	27055	0.813472130193	0
45	27150	0.816150143537	1
45	27151	0.816150143537	2
45	27157	0.816696143537	1
45	27157	0.816696143537	0
45	27343	0.822146176897	1
45	27344	0.822146176897	2
45	27349	0.822692176897	1
45	27349	0.822692176897	0
45	27414	0.824146183569	1
45	27415	0.824146183569	2
45	27420	0.824692183569	1
45	27420	0.824692183569	0
45	27575	0.828758210257	1
45	27576	0.828758210257	2
45	27581	0.829304210257	1
45	27581	0.829304210257	0
45	27706	0.832866230273	1
45	27708	0.832866230273	2
45	27717	0.833412230273	1
45	27717	0.833412230273	0
45	27731	0.833762230273	1
45	27732	0.833762230273	2
45	27737	0.834308230273	1
45	27737	0.834308230273	0
45	27831	0.836586243617	1
45	27832	0.836586243617	2
45	27838	0.837132243617	1
45	27838	0.837132243617	0
45	27962	0.840494263633	1
45	27964	0.840494263633	2
45	27974	0.841040263633	1
45	27974	0.841040263633	0
45	28048	0.843618283648	1
45	28049	0.843618283648	2
45	28053	0.844164283648	1
45	28053	0.844164283648	0
45	28179	0.847686303664	1
45	28180	0.847686303664	2
45	28185	0.848232303664	1
45	28185	0.848232303664	0
45	28249	0.849306310336	1
45	28250	0.849306310336	2
45	28255	0.849852310336	1
45	28255	0.849852310336	0
45	28439	0.854962343696	1
45	28440	0.854962343696	2
45	28445	0.855508343696	1
45	28445	0.855508343696	0
45	28570	0.858630363712	1
45	28571	0.858630363712	2
45	28576	0.859176363712	1
45	28576	0.859176363712	0
45	28701	0.862698383728	1
45	28702	0.862698383728	2
45	28707	0.863244383728	1
45	28707	0.863244383728	0
45	28802	0.865282397072	1
45	28803	0.865282397072	2
45	28809	0.865828397072	1
45	28809	0.865828397072	0
45	28902	0.867886410416	1
45	28903	0.867886410416	2
45	28908	0.868432410416	1
45	28908	0.868432410416	0
45	29033	0.871814430432	1
45	29034	0.871814430432	2
45	29039	0.872360430432	1
45	29039	0.872360430432	0
45	29195	0.87680645712	1
45	29197	0.87680645712	2
45	29207	0.87735245712	1
45	29207	0.87735245712	0
45	29254	0.879686463792	1
45	29255	0.879686463792	2
45	29259	0.880232463792	1
45	29259	0.880232463792	0
45	29323	0.881306470464	1
45	29325	0.881306470464	2
45	29334	0.881852470464	1
45	29334	0.881852470464	0
45	29409	0.884710490479	1
45	29410	0.884710490479	2
45	29415	0.885256490479	1
45	29415	0.885256490479	0
45	29481	0.886830497151	1
45	29483	0.886830497151	2
45	29492	0.887376497151	1
45	29492	0.887376497151	0
45	29533	0.88841050854	1
45	29534	0.88841050854	2
45	29539	0.88895650854	1
45	29539	0.88895650854	0
45	29664	0.892658528556	1
45	29665	0.892658528556	2
45	29670	0.893204528556	1
45	29670	0.893204528556	0
45	29793	0.896246548572	1
45	29794	0.896246548572	2
45	29799	0.896792548572	1
45	29799	0.896792548572	0
45	29894	0.899690561916	1
45	29895	0.899690561916	2
45	29899	0.900236561916	1
45	29899	0.900236561916	0
45	30056	0.904762588604	1
45	30057	0.904762588604	2
45	30062	0.905308588604	1
45	30062	0.905308588604	0
45	30187	0.90867060862	1
45	30188	0.90867060862	2
45	30192	0.90921660862	1
45	30192	0.90921660862	0
45	30347	0.913702635308	1
45	30348	0.913702635308	2
45	30353	0.914248635308	1
45	30353	0.914248635308	0
45	30478	0.917790655324	1
45	30479	0.917790655324	2
45	30484	0.918336655324	1
45	30484	0.918336655324	0
45	30580	0.920534668668	1
45	30581	0.920534668668	2
45	30585	0.921080668668	1
45	30585	0.921080668668	0
45	30710	0.924402688684	1
45	30711	0.924402688684	2
45	30716	0.924948688684	1
45	30716	0.924948688684	0
45	30870	0.928974715372	1
45	30871	0.928974715372	2
45	30876	0.929520715372	1
45	30876	0.929520715372	0
45	31001	0.932882735388	1
45	31002	0.932882735388	2
45	31007	0.933428735388	1
45	31007	0.933428735388	0
45	31132	0.936670755404	1
45	31133	0.936670755404	2
45	31138	0.937216755404	1
45	31138	0.937216755404	0
45	31203	0.938690762076	1
45	31204	0.938690762076	2
45	31209	0.939236762076	1
45	31209	0.939236762076	0
45	31395	0.944906795436	1
45	31396	0.944906795436	2
45	31401	0.945452795436	1
45	31401	0.945452795436	0
45	31525	0.948574815452	1
45	31526	0.948574815452	2
45	31531	0.949120815452	1
45	31531	0.949120815452	0
45	31656	0.952042835468	1
45	31657	0.952042835468	2
45	31661	0.952588835468	1
45	31661	0.952588835468	0
45	31787	0.956170855484	1
45	31788	0.956170855484	2
45	31793	0.956716855484	1
45	31793	0.956716855484	0
45	31857	0.957850862156	1
45	31858	0.957850862156	2
45	31864	0.958396862156	1
45	31864	0.958396862156	0
45	32020	0.962802888844	1
45	32021	0.962802888844	2
45	32026	0.963348888844	1
45	32026	0.963348888844	0
45	32180	0.967274915532	1
45	32181	0.967274915532	2
45	32186	0.967820915532	1
45	32186	0.967820915532	0
45	32311	0.971402935548	1
45	32312	0.971402935548	2
45	32317	0.971948935548	1
45	32317	0.971948935548	0
45	32443	0.975130955564	1
45	32444	0.975130955564	2
45	32449	0.975676955564	1
45	32449	0.975676955564	0
45	32545	0.978394968908	1
45	32546	0.978394968908	2
45	32550	0.978940968908	1
45	32550	0.978940968908	0
45	32674	0.981782988924	1
45	32675	0.981782988924	2
45	32681	0.982328988924	1
45	32681	0.982328988924	0
45	32805	0.98547100894	1
45	32806	0.98547100894	2
45	32812	0.98601700894	1
45	32812	0.98601700894	0
45	32966	0.990243035628	1
45	32967	0.990243035628	2
45	32972	0.990789035628	1
45	32972	0.990789035628	0
45	33097	0.993951055644	1
45	33098	0.993951055644	2
45	33103	0.994497055644	1
45	33103	0.994497055644	0
45	33167	0.995651062316	1
45	33168	0.995651062316	2
45	33173	0.996197062316	1
45	33173	0.996197062316	0
46	2535	0.074644386976	59
46	2854	0.084960438397	59
46	3371	0.101024511789	59
46	5391	0.159524825372	59
46	6039	0.17949691878	59
46	7636	0.226709165643	59
46	8476	0.251157297128	59
46	8995	0.26708137052	59
46	9054	0.269761383863	59
46	9213	0.275585403879	59
46	10512	0.315597597367	59
46	11979	0.359821824214	59
46	15017	0.450262289299	59
46	16353	0.48971849613	59
46	17166	0.514182620943	59
46	17583	0.527122687662	59
46	17638	0.528902701005	59
46	18025	0.541438754381	59
46	21750	0.655003326218	59
46	22661	0.682231459658	59
46	25207	0.758683853305	59
46	27721	0.833412233609	59
46	27978	0.841040266969	59
46	29211	0.877352460456	59
46	29338	0.8818524738	59
46	29495	0.887376500487	59
47	2538	0.074644388357	59
47	2857	0.084960439778	59
47	7639	0.226709167024	59
47	8479	0.251157298509	59
47	11982	0.359821825595	59
47	16356	0.489718497511	59
47	18028	0.541438755762	59
47	29498	0.887376501868	59
48	3375	0.10102451317	59
48	5395	0.159524826753	59
48	8999	0.267081371901	59
48	9058	0.269761385244	59
48	9217	0.27558540526	59
48	10516	0.315597598748	59
48	25211	0.758683854686	59
49	6043	0.179496920161	59
49	15021	0.45026229068	59
49	17170	0.514182622324	59
49	17587	0.527122689043	59
49	17642	0.528902702386	59
49	21754	0.655003327599	59
49	22665	0.682231461039	59
49	27725	0.83341223499	59
49	27982	0.84104026835	59
49	29215	0.877352461837	59
49	29342	0.881852475181	59

